@<TRIPOS>MOLECULE
*****
 28 30 0 0 0
SMALL
GASTEIGER

@<TRIPOS>ATOM
      1 C         139.8465  140.6826  166.2874 C.2     1  UNL1       -0.0222
      2 C         140.8012  141.8377  166.3534 C.2     1  UNL1       -0.0040
      3 C         141.3867  142.2524  167.6707 C.ar    1  UNL1       -0.0003
      4 C         140.5707  143.0652  168.6316 C.ar    1  UNL1       -0.0000
      5 C         141.1563  143.4799  169.9488 C.ar    1  UNL1       -0.0000
      6 C         142.5579  143.0817  170.3051 C.ar    1  UNL1       -0.0000
      7 C         143.3739  142.2689  169.3442 C.ar    1  UNL1       -0.0000
      8 C         142.7883  141.8542  168.0270 C.ar    1  UNL1       -0.0000
      9 C         141.1702  142.5781  165.1022 C.ar    1  UNL1       -0.0001
     10 C         140.4656  143.8548  164.7508 C.ar    1  UNL1        0.0031
     11 C         140.8347  144.5952  163.4996 C.ar    1  UNL1        0.0369
     12 C         141.9084  144.0590  162.5998 C.ar    1  UNL1        0.1386
     13 C         142.6131  142.7822  162.9512 C.ar    1  UNL1        0.0369
     14 C         142.2440  142.0418  164.2025 C.ar    1  UNL1        0.0031
     15 O         142.2775  144.7994  161.3486 O.3     1  UNL1       -0.4740
     16 C         141.7682  144.3265  160.0194 C.3     1  UNL1        0.2226
     17 C         140.3632  144.6420  159.5991 C.3     1  UNL1        0.1201
     18 N         139.3447  143.5448  159.5036 N.3     1  UNL1       -0.2672
     19 C         138.8875  143.0609  158.1594 C.3     1  UNL1        0.0898
     20 C         138.7835  142.9317  160.7522 C.3     1  UNL1        0.0898
     21 C         139.2610  140.2678  164.9701 C.ar    1  UNL1       -0.0040
     22 C         139.8413  139.1025  164.2250 C.ar    1  UNL1       -0.0003
     23 C         139.2557  138.6879  162.9078 C.ar    1  UNL1       -0.0000
     24 C         138.0898  139.4385  162.3357 C.ar    1  UNL1       -0.0000
     25 C         137.5095  140.6038  163.0808 C.ar    1  UNL1       -0.0000
     26 C         138.0951  141.0185  164.3980 C.ar    1  UNL1       -0.0003
     27 C         138.2156  139.1324  167.5864 C.3     1  UNL1        0.0050
     28 C         139.4775  139.9421  167.5386 C.3     1  UNL1        0.0264
@<TRIPOS>BOND
     1    27    28    1
     2    28     1    1
     3     1     2    2
     4     2     3    1
     5     3     4   ar
     6     4     5   ar
     7     5     6   ar
     8     6     7   ar
     9     7     8   ar
    10     2     9    1
    11     9    10   ar
    12    10    11   ar
    13    11    12   ar
    14    12    15    1
    15    15    16    1
    16    16    17    1
    17    17    18    1
    18    18    19    1
    19    18    20    1
    20    12    13   ar
    21    13    14   ar
    22     1    21    1
    23    21    22   ar
    24    22    23   ar
    25    23    24   ar
    26    24    25   ar
    27    25    26   ar
    28     8     3   ar
    29    14     9   ar
    30    26    21   ar
@<TRIPOS>MOLECULE
*****
 28 30 0 0 0
SMALL
GASTEIGER

@<TRIPOS>ATOM
      1 C         139.3830  139.6250  166.4445 C.2     1  UNL1       -0.0222
      2 C         140.5301  140.4923  166.8711 C.2     1  UNL1       -0.0040
      3 C         140.6072  140.9929  168.2830 C.ar    1  UNL1       -0.0003
      4 C         140.3011  142.4295  168.5871 C.ar    1  UNL1       -0.0000
      5 C         140.3782  142.9301  169.9990 C.ar    1  UNL1       -0.0000
      6 C         140.7615  141.9941  171.1067 C.ar    1  UNL1       -0.0000
      7 C         141.0676  140.5575  170.8026 C.ar    1  UNL1       -0.0000
      8 C         140.9905  140.0570  169.3907 C.ar    1  UNL1       -0.0000
      9 C         141.6001  140.8589  165.8858 C.ar    1  UNL1       -0.0001
     10 C         141.4248  142.0560  164.9991 C.ar    1  UNL1        0.0031
     11 C         142.4948  142.4227  164.0139 C.ar    1  UNL1        0.0369
     12 C         143.7400  141.5923  163.9153 C.ar    1  UNL1        0.1386
     13 C         143.9153  140.3952  164.8021 C.ar    1  UNL1        0.0369
     14 C         142.8454  140.0285  165.7873 C.ar    1  UNL1        0.0031
     15 O         144.8100  141.9589  162.9301 O.3     1  UNL1       -0.4740
     16 C         144.5821  143.0774  161.9569 C.3     1  UNL1        0.2226
     17 C         144.2160  142.7713  160.5349 C.3     1  UNL1        0.1201
     18 N         143.0770  143.4961  159.8810 N.3     1  UNL1       -0.2672
     19 C         141.9958  144.1078  160.7218 C.3     1  UNL1        0.0898
     20 C         143.0192  143.6091  158.3864 C.3     1  UNL1        0.0898
     21 C         139.3059  139.1244  165.0325 C.ar    1  UNL1       -0.0040
     22 C         138.4373  139.8292  164.0332 C.ar    1  UNL1       -0.0003
     23 C         138.3602  139.3286  162.6214 C.ar    1  UNL1       -0.0000
     24 C         139.1517  138.1230  162.2088 C.ar    1  UNL1       -0.0000
     25 C         140.0203  137.4182  163.2081 C.ar    1  UNL1       -0.0000
     26 C         140.0974  137.9188  164.6200 C.ar    1  UNL1       -0.0003
     27 C         137.4008  138.1008  167.1501 C.3     1  UNL1        0.0050
     28 C         138.3130  139.2584  167.4297 C.3     1  UNL1        0.0264
@<TRIPOS>BOND
     1    27    28    1
     2    28     1    1
     3     1     2    2
     4     2     3    1
     5     3     4   ar
     6     4     5   ar
     7     5     6   ar
     8     6     7   ar
     9     7     8   ar
    10     2     9    1
    11     9    10   ar
    12    10    11   ar
    13    11    12   ar
    14    12    15    1
    15    15    16    1
    16    16    17    1
    17    17    18    1
    18    18    19    1
    19    18    20    1
    20    12    13   ar
    21    13    14   ar
    22     1    21    1
    23    21    22   ar
    24    22    23   ar
    25    23    24   ar
    26    24    25   ar
    27    25    26   ar
    28     8     3   ar
    29    14     9   ar
    30    26    21   ar
@<TRIPOS>MOLECULE
*****
 28 30 0 0 0
SMALL
GASTEIGER

@<TRIPOS>ATOM
      1 C         139.4056  139.5991  166.4282 C.2     1  UNL1       -0.0222
      2 C         140.5877  140.4135  166.8631 C.2     1  UNL1       -0.0040
      3 C         140.6652  140.9318  168.2686 C.ar    1  UNL1       -0.0003
      4 C         140.3848  142.3780  168.5512 C.ar    1  UNL1       -0.0000
      5 C         140.4623  142.8962  169.9567 C.ar    1  UNL1       -0.0000
      6 C         140.8202  141.9683  171.0795 C.ar    1  UNL1       -0.0000
      7 C         141.1007  140.5221  170.7969 C.ar    1  UNL1       -0.0000
      8 C         141.0232  140.0039  169.3915 C.ar    1  UNL1       -0.0000
      9 C         141.6924  140.7098  165.8925 C.ar    1  UNL1       -0.0001
     10 C         141.6161  141.9260  165.0179 C.ar    1  UNL1        0.0031
     11 C         142.7208  142.2222  164.0473 C.ar    1  UNL1        0.0369
     12 C         143.9017  141.3023  163.9514 C.ar    1  UNL1        0.1386
     13 C         143.9779  140.0860  164.8261 C.ar    1  UNL1        0.0369
     14 C         142.8733  139.7898  165.7966 C.ar    1  UNL1        0.0031
     15 O         145.0063  141.5985  162.9808 O.3     1  UNL1       -0.4740
     16 C         144.7101  142.3394  161.7107 C.3     1  UNL1        0.2226
     17 C         144.1134  141.6142  160.5411 C.3     1  UNL1        0.1201
     18 N         143.3569  140.3370  160.7571 N.3     1  UNL1       -0.2672
     19 C         144.0901  139.0290  160.7987 C.3     1  UNL1        0.0898
     20 C         141.8675  140.3678  160.9315 C.3     1  UNL1        0.0898
     21 C         139.3281  139.0808  165.0226 C.ar    1  UNL1       -0.0040
     22 C         140.1055  137.8597  164.6296 C.ar    1  UNL1       -0.0003
     23 C         140.0280  137.3414  163.2242 C.ar    1  UNL1       -0.0000
     24 C         139.1730  138.0443  162.2117 C.ar    1  UNL1       -0.0000
     25 C         138.3956  139.2654  162.6047 C.ar    1  UNL1       -0.0000
     26 C         138.4732  139.7836  164.0102 C.ar    1  UNL1       -0.0003
     27 C         137.3937  138.1308  167.1675 C.3     1  UNL1        0.0050
     28 C         138.3009  139.3028  167.3987 C.3     1  UNL1        0.0264
@<TRIPOS>BOND
     1    27    28    1
     2    28     1    1
     3     1     2    2
     4     2     3    1
     5     3     4   ar
     6     4     5   ar
     7     5     6   ar
     8     6     7   ar
     9     7     8   ar
    10     2     9    1
    11     9    10   ar
    12    10    11   ar
    13    11    12   ar
    14    12    15    1
    15    15    16    1
    16    16    17    1
    17    17    18    1
    18    18    19    1
    19    18    20    1
    20    12    13   ar
    21    13    14   ar
    22     1    21    1
    23    21    22   ar
    24    22    23   ar
    25    23    24   ar
    26    24    25   ar
    27    25    26   ar
    28     8     3   ar
    29    14     9   ar
    30    26    21   ar
@<TRIPOS>MOLECULE
*****
 28 30 0 0 0
SMALL
GASTEIGER

@<TRIPOS>ATOM
      1 C         139.5758  140.3371  166.2973 C.2     1  UNL1       -0.0222
      2 C         140.6993  141.3123  166.4884 C.2     1  UNL1       -0.0040
      3 C         141.2571  141.5546  167.8597 C.ar    1  UNL1       -0.0003
      4 C         140.7010  142.6568  168.7116 C.ar    1  UNL1       -0.0000
      5 C         141.2588  142.8990  170.0827 C.ar    1  UNL1       -0.0000
      6 C         142.3727  142.0390  170.6020 C.ar    1  UNL1       -0.0000
      7 C         142.9288  140.9368  169.7501 C.ar    1  UNL1       -0.0000
      8 C         142.3710  140.6946  168.3789 C.ar    1  UNL1       -0.0000
      9 C         141.2651  142.0453  165.3083 C.ar    1  UNL1       -0.0001
     10 C         140.9065  143.4832  165.0763 C.ar    1  UNL1        0.0031
     11 C         141.4723  144.2162  163.8962 C.ar    1  UNL1        0.0369
     12 C         142.3966  143.5114  162.9482 C.ar    1  UNL1        0.1386
     13 C         142.7552  142.0734  163.1802 C.ar    1  UNL1        0.0369
     14 C         142.1894  141.3404  164.3603 C.ar    1  UNL1        0.0031
     15 O         142.9624  144.2444  161.7681 O.3     1  UNL1       -0.4740
     16 C         142.3543  144.0610  160.4093 C.3     1  UNL1        0.2226
     17 C         141.1787  144.8953  159.9949 C.3     1  UNL1        0.1201
     18 N         139.9455  144.9299  160.8482 N.3     1  UNL1       -0.2672
     19 C         139.1368  143.6825  161.0485 C.3     1  UNL1        0.0898
     20 C         139.5210  146.2118  161.5012 C.3     1  UNL1        0.0898
     21 C         139.0180  140.0948  164.9260 C.ar    1  UNL1       -0.0040
     22 C         138.0664  141.0822  164.3182 C.ar    1  UNL1       -0.0003
     23 C         137.5086  140.8399  162.9471 C.ar    1  UNL1       -0.0000
     24 C         137.9025  139.6102  162.1837 C.ar    1  UNL1       -0.0000
     25 C         138.8541  138.6228  162.7915 C.ar    1  UNL1       -0.0000
     26 C         139.4118  138.8651  164.1627 C.ar    1  UNL1       -0.0003
     27 C         137.7579  138.7920  167.3259 C.3     1  UNL1        0.0050
     28 C         139.0100  139.6041  167.4774 C.3     1  UNL1        0.0264
@<TRIPOS>BOND
     1    27    28    1
     2    28     1    1
     3     1     2    2
     4     2     3    1
     5     3     4   ar
     6     4     5   ar
     7     5     6   ar
     8     6     7   ar
     9     7     8   ar
    10     2     9    1
    11     9    10   ar
    12    10    11   ar
    13    11    12   ar
    14    12    15    1
    15    15    16    1
    16    16    17    1
    17    17    18    1
    18    18    19    1
    19    18    20    1
    20    12    13   ar
    21    13    14   ar
    22     1    21    1
    23    21    22   ar
    24    22    23   ar
    25    23    24   ar
    26    24    25   ar
    27    25    26   ar
    28     8     3   ar
    29    14     9   ar
    30    26    21   ar
@<TRIPOS>MOLECULE
*****
 28 30 0 0 0
SMALL
GASTEIGER

@<TRIPOS>ATOM
      1 C         142.1077  140.1623  165.8619 C.2     1  UNL1       -0.0222
      2 C         140.6968  140.2929  165.3697 C.2     1  UNL1       -0.0040
      3 C         139.6350  139.3651  165.8816 C.ar    1  UNL1       -0.0003
      4 C         138.8684  139.7145  167.1226 C.ar    1  UNL1       -0.0000
      5 C         137.8067  138.7867  167.6344 C.ar    1  UNL1       -0.0000
      6 C         137.5116  137.5096  166.9052 C.ar    1  UNL1       -0.0000
      7 C         138.2782  137.1602  165.6642 C.ar    1  UNL1       -0.0000
      8 C         139.3399  138.0879  165.1524 C.ar    1  UNL1       -0.0000
      9 C         140.3476  141.3512  164.3657 C.ar    1  UNL1       -0.0001
     10 C         139.9306  142.7157  164.8285 C.ar    1  UNL1        0.0031
     11 C         139.5814  143.7740  163.8245 C.ar    1  UNL1        0.0369
     12 C         139.6491  143.4677  162.3576 C.ar    1  UNL1        0.1386
     13 C         140.0661  142.1032  161.8948 C.ar    1  UNL1        0.0369
     14 C         140.4153  141.0449  162.8988 C.ar    1  UNL1        0.0031
     15 O         139.2999  144.5260  161.3536 O.3     1  UNL1       -0.4740
     16 C         140.3592  145.4613  160.8506 C.3     1  UNL1        0.2226
     17 C         141.1476  145.1112  159.6234 C.3     1  UNL1        0.1201
     18 N         142.3385  144.2054  159.7303 N.3     1  UNL1       -0.2672
     19 C         142.9444  143.6139  158.4921 C.3     1  UNL1        0.0898
     20 C         142.9236  143.8912  161.0752 C.3     1  UNL1        0.0898
     21 C         143.1695  141.0901  165.3500 C.ar    1  UNL1       -0.0040
     22 C         144.0495  140.6673  164.2113 C.ar    1  UNL1       -0.0003
     23 C         145.1112  141.5951  163.6995 C.ar    1  UNL1       -0.0000
     24 C         145.2929  142.9456  164.3264 C.ar    1  UNL1       -0.0000
     25 C         144.4128  143.3684  165.4651 C.ar    1  UNL1       -0.0000
     26 C         143.3511  142.4407  165.9769 C.ar    1  UNL1       -0.0003
     27 C         142.6299  139.4687  168.3106 C.3     1  UNL1        0.0050
     28 C         142.4569  139.1040  166.8659 C.3     1  UNL1        0.0264
@<TRIPOS>BOND
     1    27    28    1
     2    28     1    1
     3     1     2    2
     4     2     3    1
     5     3     4   ar
     6     4     5   ar
     7     5     6   ar
     8     6     7   ar
     9     7     8   ar
    10     2     9    1
    11     9    10   ar
    12    10    11   ar
    13    11    12   ar
    14    12    15    1
    15    15    16    1
    16    16    17    1
    17    17    18    1
    18    18    19    1
    19    18    20    1
    20    12    13   ar
    21    13    14   ar
    22     1    21    1
    23    21    22   ar
    24    22    23   ar
    25    23    24   ar
    26    24    25   ar
    27    25    26   ar
    28     8     3   ar
    29    14     9   ar
    30    26    21   ar
@<TRIPOS>MOLECULE
*****
 28 30 0 0 0
SMALL
GASTEIGER

@<TRIPOS>ATOM
      1 C         142.1274  140.1875  165.7534 C.2     1  UNL1       -0.0222
      2 C         140.7123  140.3067  165.2707 C.2     1  UNL1       -0.0040
      3 C         139.6658  139.3568  165.7734 C.ar    1  UNL1       -0.0003
      4 C         138.8374  139.7184  166.9705 C.ar    1  UNL1       -0.0000
      5 C         137.7910  138.7685  167.4731 C.ar    1  UNL1       -0.0000
      6 C         137.5730  137.4569  166.7786 C.ar    1  UNL1       -0.0000
      7 C         138.4014  137.0953  165.5816 C.ar    1  UNL1       -0.0000
      8 C         139.4478  138.0452  165.0790 C.ar    1  UNL1       -0.0000
      9 C         140.3434  141.3759  164.2854 C.ar    1  UNL1       -0.0001
     10 C         140.4484  141.1077  162.8133 C.ar    1  UNL1        0.0031
     11 C         140.0796  142.1768  161.8280 C.ar    1  UNL1        0.0369
     12 C         139.6058  143.5142  162.3147 C.ar    1  UNL1        0.1386
     13 C         139.5008  143.7824  163.7868 C.ar    1  UNL1        0.0369
     14 C         139.8696  142.7133  164.7722 C.ar    1  UNL1        0.0031
     15 O         139.2370  144.5833  161.3294 O.3     1  UNL1       -0.4740
     16 C         140.2788  145.5466  160.8429 C.3     1  UNL1        0.2226
     17 C         140.4705  145.7638  159.3711 C.3     1  UNL1        0.1201
     18 N         141.6647  145.1798  158.6761 N.3     1  UNL1       -0.2672
     19 C         142.3073  143.9334  159.2088 C.3     1  UNL1        0.0898
     20 C         142.2161  145.8420  157.4484 C.3     1  UNL1        0.0898
     21 C         143.1739  141.1374  165.2507 C.ar    1  UNL1       -0.0040
     22 C         143.9838  140.7876  164.0377 C.ar    1  UNL1       -0.0003
     23 C         145.0302  141.7376  163.5351 C.ar    1  UNL1       -0.0000
     24 C         145.2667  143.0373  164.2455 C.ar    1  UNL1       -0.0000
     25 C         144.4567  143.3871  165.4586 C.ar    1  UNL1       -0.0000
     26 C         143.4104  142.4372  165.9612 C.ar    1  UNL1       -0.0003
     27 C         143.6429  138.1954  166.4498 C.3     1  UNL1        0.0050
     28 C         142.4962  139.1183  166.7388 C.3     1  UNL1        0.0264
@<TRIPOS>BOND
     1    27    28    1
     2    28     1    1
     3     1     2    2
     4     2     3    1
     5     3     4   ar
     6     4     5   ar
     7     5     6   ar
     8     6     7   ar
     9     7     8   ar
    10     2     9    1
    11     9    10   ar
    12    10    11   ar
    13    11    12   ar
    14    12    15    1
    15    15    16    1
    16    16    17    1
    17    17    18    1
    18    18    19    1
    19    18    20    1
    20    12    13   ar
    21    13    14   ar
    22     1    21    1
    23    21    22   ar
    24    22    23   ar
    25    23    24   ar
    26    24    25   ar
    27    25    26   ar
    28     8     3   ar
    29    14     9   ar
    30    26    21   ar
@<TRIPOS>MOLECULE
*****
 28 30 0 0 0
SMALL
GASTEIGER

@<TRIPOS>ATOM
      1 C         139.2382  139.5185  166.4170 C.2     1  UNL1       -0.0222
      2 C         140.5639  140.1294  166.7623 C.2     1  UNL1       -0.0040
      3 C         140.9033  140.4259  168.1930 C.ar    1  UNL1       -0.0003
      4 C         141.8232  139.5146  168.9500 C.ar    1  UNL1       -0.0000
      5 C         142.1626  139.8111  170.3806 C.ar    1  UNL1       -0.0000
      6 C         141.5820  141.0190  171.0543 C.ar    1  UNL1       -0.0000
      7 C         140.6621  141.9304  170.2973 C.ar    1  UNL1       -0.0000
      8 C         140.3227  141.6339  168.8667 C.ar    1  UNL1       -0.0000
      9 C         141.5502  140.4439  165.6768 C.ar    1  UNL1       -0.0001
     10 C         142.5776  139.4260  165.2791 C.ar    1  UNL1        0.0031
     11 C         143.5640  139.7404  164.1936 C.ar    1  UNL1        0.0369
     12 C         143.5229  141.0728  163.5059 C.ar    1  UNL1        0.1386
     13 C         142.4955  142.0908  163.9036 C.ar    1  UNL1        0.0369
     14 C         141.5091  141.7763  164.9890 C.ar    1  UNL1        0.0031
     15 O         144.5093  141.3872  162.4204 O.3     1  UNL1       -0.4740
     16 C         144.0961  141.2940  160.9815 C.3     1  UNL1        0.2226
     17 C         144.0252  139.9563  160.3067 C.3     1  UNL1        0.1201
     18 N         142.8109  139.0926  160.4793 N.3     1  UNL1       -0.2672
     19 C         141.4760  139.7208  160.7500 C.3     1  UNL1        0.0898
     20 C         142.9316  137.6007  160.3813 C.3     1  UNL1        0.0898
     21 C         138.8988  139.2219  164.9863 C.ar    1  UNL1       -0.0040
     22 C         138.1668  140.2397  164.1627 C.ar    1  UNL1       -0.0003
     23 C         137.8275  139.9431  162.7320 C.ar    1  UNL1       -0.0000
     24 C         138.2200  138.6288  162.1250 C.ar    1  UNL1       -0.0000
     25 C         138.9520  137.6111  162.9486 C.ar    1  UNL1       -0.0000
     26 C         139.2914  137.9076  164.3793 C.ar    1  UNL1       -0.0003
     27 C         137.2873  138.0677  167.3333 C.3     1  UNL1        0.0050
     28 C         138.2518  139.2040  167.5025 C.3     1  UNL1        0.0264
@<TRIPOS>BOND
     1    27    28    1
     2    28     1    1
     3     1     2    2
     4     2     3    1
     5     3     4   ar
     6     4     5   ar
     7     5     6   ar
     8     6     7   ar
     9     7     8   ar
    10     2     9    1
    11     9    10   ar
    12    10    11   ar
    13    11    12   ar
    14    12    15    1
    15    15    16    1
    16    16    17    1
    17    17    18    1
    18    18    19    1
    19    18    20    1
    20    12    13   ar
    21    13    14   ar
    22     1    21    1
    23    21    22   ar
    24    22    23   ar
    25    23    24   ar
    26    24    25   ar
    27    25    26   ar
    28     8     3   ar
    29    14     9   ar
    30    26    21   ar
@<TRIPOS>MOLECULE
*****
 28 30 0 0 0
SMALL
GASTEIGER

@<TRIPOS>ATOM
      1 C         141.9115  139.6587  165.9903 C.2     1  UNL1       -0.0222
      2 C         140.7839  140.6314  166.1700 C.2     1  UNL1       -0.0040
      3 C         140.4353  141.1308  167.5409 C.ar    1  UNL1       -0.0003
      4 C         140.8911  142.4899  167.9824 C.ar    1  UNL1       -0.0000
      5 C         140.5426  142.9892  169.3532 C.ar    1  UNL1       -0.0000
      6 C         139.7383  142.1293  170.2825 C.ar    1  UNL1       -0.0000
      7 C         139.2825  140.7702  169.8411 C.ar    1  UNL1       -0.0000
      8 C         139.6310  140.2709  168.4702 C.ar    1  UNL1       -0.0000
      9 C         140.0048  141.1048  164.9788 C.ar    1  UNL1       -0.0001
     10 C         138.7038  140.4479  164.6242 C.ar    1  UNL1        0.0031
     11 C         137.9247  140.9213  163.4331 C.ar    1  UNL1        0.0369
     12 C         138.4465  142.0516  162.5965 C.ar    1  UNL1        0.1386
     13 C         139.7476  142.7087  162.9511 C.ar    1  UNL1        0.0369
     14 C         140.5267  142.2353  164.1423 C.ar    1  UNL1        0.0031
     15 O         137.6674  142.5251  161.4054 O.3     1  UNL1       -0.4740
     16 C         138.2412  142.3783  160.0273 C.3     1  UNL1        0.2226
     17 C         138.4105  141.0143  159.4267 C.3     1  UNL1        0.1201
     18 N         139.5200  140.1206  159.8962 N.3     1  UNL1       -0.2672
     19 C         139.2290  138.6979  160.2720 C.3     1  UNL1        0.0898
     20 C         140.9205  140.6495  159.9897 C.3     1  UNL1        0.0898
     21 C         142.2600  139.1594  164.6194 C.ar    1  UNL1       -0.0040
     22 C         143.3867  139.7896  163.8557 C.ar    1  UNL1       -0.0003
     23 C         143.7352  139.2903  162.4849 C.ar    1  UNL1       -0.0000
     24 C         142.9570  138.1607  161.8778 C.ar    1  UNL1       -0.0000
     25 C         141.8303  137.5305  162.6416 C.ar    1  UNL1       -0.0000
     26 C         141.4819  138.0298  164.0124 C.ar    1  UNL1       -0.0003
     27 C         143.6595  138.0488  167.0405 C.3     1  UNL1        0.0050
     28 C         142.6906  139.1853  167.1815 C.3     1  UNL1        0.0264
@<TRIPOS>BOND
     1    27    28    1
     2    28     1    1
     3     1     2    2
     4     2     3    1
     5     3     4   ar
     6     4     5   ar
     7     5     6   ar
     8     6     7   ar
     9     7     8   ar
    10     2     9    1
    11     9    10   ar
    12    10    11   ar
    13    11    12   ar
    14    12    15    1
    15    15    16    1
    16    16    17    1
    17    17    18    1
    18    18    19    1
    19    18    20    1
    20    12    13   ar
    21    13    14   ar
    22     1    21    1
    23    21    22   ar
    24    22    23   ar
    25    23    24   ar
    26    24    25   ar
    27    25    26   ar
    28     8     3   ar
    29    14     9   ar
    30    26    21   ar
@<TRIPOS>MOLECULE
*****
 28 30 0 0 0
SMALL
GASTEIGER

@<TRIPOS>ATOM
      1 C         142.3456  140.4071  165.8757 C.2     1  UNL1       -0.0222
      2 C         141.2142  141.3481  166.1665 C.2     1  UNL1       -0.0040
      3 C         140.6054  141.3882  167.5369 C.ar    1  UNL1       -0.0003
      4 C         139.7551  140.2481  168.0135 C.ar    1  UNL1       -0.0000
      5 C         139.1464  140.2883  169.3838 C.ar    1  UNL1       -0.0000
      6 C         139.3879  141.4685  170.2775 C.ar    1  UNL1       -0.0000
      7 C         140.2382  142.6086  169.8008 C.ar    1  UNL1       -0.0000
      8 C         140.8470  142.5684  168.4306 C.ar    1  UNL1       -0.0000
      9 C         140.6916  142.2489  165.0870 C.ar    1  UNL1       -0.0001
     10 C         141.3802  143.5495  164.7968 C.ar    1  UNL1        0.0031
     11 C         140.8575  144.4504  163.7173 C.ar    1  UNL1        0.0369
     12 C         139.6463  144.0506  162.9280 C.ar    1  UNL1        0.1386
     13 C         138.9577  142.7499  163.2181 C.ar    1  UNL1        0.0369
     14 C         139.4803  141.8491  164.2976 C.ar    1  UNL1        0.0031
     15 O         139.1237  144.9514  161.8485 O.3     1  UNL1       -0.4740
     16 C         140.0685  145.8259  161.0786 C.3     1  UNL1        0.2226
     17 C         140.7782  145.2844  159.8732 C.3     1  UNL1        0.1201
     18 N         140.6996  143.8215  159.5508 N.3     1  UNL1       -0.2672
     19 C         139.5673  143.2967  158.7187 C.3     1  UNL1        0.0898
     20 C         141.7534  142.8836  160.0604 C.3     1  UNL1        0.0898
     21 C         142.9544  140.3670  164.5053 C.ar    1  UNL1       -0.0040
     22 C         142.2940  139.5777  163.4141 C.ar    1  UNL1       -0.0003
     23 C         142.9028  139.5376  162.0438 C.ar    1  UNL1       -0.0000
     24 C         144.1720  140.2868  161.7648 C.ar    1  UNL1       -0.0000
     25 C         144.8324  141.0761  162.8560 C.ar    1  UNL1       -0.0000
     26 C         144.2236  141.1162  164.2263 C.ar    1  UNL1       -0.0003
     27 C         143.6146  138.2565  166.5931 C.3     1  UNL1        0.0050
     28 C         142.8682  139.5063  166.9552 C.3     1  UNL1        0.0264
@<TRIPOS>BOND
     1    27    28    1
     2    28     1    1
     3     1     2    2
     4     2     3    1
     5     3     4   ar
     6     4     5   ar
     7     5     6   ar
     8     6     7   ar
     9     7     8   ar
    10     2     9    1
    11     9    10   ar
    12    10    11   ar
    13    11    12   ar
    14    12    15    1
    15    15    16    1
    16    16    17    1
    17    17    18    1
    18    18    19    1
    19    18    20    1
    20    12    13   ar
    21    13    14   ar
    22     1    21    1
    23    21    22   ar
    24    22    23   ar
    25    23    24   ar
    26    24    25   ar
    27    25    26   ar
    28     8     3   ar
    29    14     9   ar
    30    26    21   ar
