@<TRIPOS>MOLECULE
*****
 31 35 0 0 0
SMALL
GASTEIGER

@<TRIPOS>ATOM
      1 O         137.6302  140.3809  162.8039 O.2     1  UNL1       -0.2749
      2 C         138.5722  141.2513  163.5818 C.2     1  UNL1        0.2250
      3 N         138.9198  140.9015  164.9985 N.am    1  UNL1       -0.2750
      4 C         138.3256  139.6813  165.6371 C.3     1  UNL1        0.1000
      5 C         138.6732  139.3316  167.0537 C.3     1  UNL1        0.0670
      6 C         139.6152  140.2020  167.8316 C.ar    1  UNL1        0.0583
      7 N         139.9628  139.8522  169.2483 N.ar    1  UNL1       -0.2484
      8 C         140.9047  140.7226  170.0262 C.ar    1  UNL1        0.1023
      9 C         141.4990  141.9428  169.3874 C.ar    1  UNL1        0.0902
     10 C         141.1514  142.2926  167.9708 C.ar    1  UNL1        0.0040
     11 C         140.2094  141.4222  167.1929 C.ar    1  UNL1        0.0113
     12 C         139.8618  141.7719  165.7764 C.3     1  UNL1        0.1213
     13 C         139.1664  142.4715  162.9431 C.3     1  UNL1        0.0704
     14 C         137.8383  142.8537  163.5261 C.3     1  UNL1        0.0087
     15 C         137.6117  144.3102  163.2478 C.3     1  UNL1        0.0005
     16 C         138.7998  144.8281  162.4927 C.3     1  UNL1        0.0005
     17 C         139.7607  143.6917  162.3044 C.3     1  UNL1        0.0095
     18 C         141.0888  143.3095  161.7214 C.3     1  UNL1        0.0162
     19 C         141.3154  141.8531  161.9997 C.3     1  UNL1        0.0544
     20 C         140.1273  141.3352  162.7548 C.3     1  UNL1        0.0243
     21 N         142.5189  141.0547  161.5942 N.3     1  UNL1       -0.2996
     22 H         142.8413  141.4387  160.7059 H       1  UNL1        0.1232
     23 C         143.7148  140.9896  162.4972 C.3     1  UNL1        0.0539
     24 C         144.8065  142.0141  162.5899 C.3     1  UNL1        0.0157
     25 C         145.7954  141.5462  163.6161 C.3     1  UNL1        0.0014
     26 C         145.3149  140.2324  164.1576 C.3     1  UNL1        0.0014
     27 C         144.0290  139.8884  163.4661 C.3     1  UNL1        0.0157
     28 C         142.4410  142.8133  170.1653 C.3     1  UNL1        0.4200
     29 F         143.3829  143.6837  170.9432 F       1  UNL1       -0.1658
     30 F         141.4535  143.9405  170.0997 F       1  UNL1       -0.1658
     31 F         143.4284  141.6860  170.2310 F       1  UNL1       -0.1658
@<TRIPOS>BOND
     1     1     2    2
     2     2     3   am
     3     3     4    1
     4     4     5    1
     5     5     6    1
     6     6     7   ar
     7     7     8   ar
     8     8     9   ar
     9     9    28    1
    10    28    29    1
    11    28    30    1
    12    28    31    1
    13     9    10   ar
    14    10    11   ar
    15    11    12    1
    16    13     2    1
    17    13    14    1
    18    14    15    1
    19    15    16    1
    20    17    16    1
    21    17    18    1
    22    18    19    1
    23    19    21    1
    24    21    23    1
    25    23    24    1
    26    24    25    1
    27    25    26    1
    28    26    27    1
    29    19    20    1
    30    12     3    1
    31    17    13    1
    32    27    23    1
    33    11     6   ar
    34    20    13    1
    35    21    22    1
@<TRIPOS>MOLECULE
*****
 31 35 0 0 0
SMALL
GASTEIGER

@<TRIPOS>ATOM
      1 O         145.4738  144.1626  166.1135 O.2     1  UNL1       -0.2749
      2 C         144.3496  143.3075  165.6086 C.2     1  UNL1        0.2250
      3 N         143.4071  142.6584  166.5784 N.am    1  UNL1       -0.2750
      4 C         143.5888  142.8644  168.0530 C.3     1  UNL1        0.1000
      5 C         142.6463  142.2152  169.0226 C.3     1  UNL1        0.0670
      6 C         141.5221  141.3601  168.5177 C.ar    1  UNL1        0.0583
      7 N         140.5796  140.7109  169.4874 N.ar    1  UNL1       -0.2484
      8 C         139.4554  139.8558  168.9825 C.ar    1  UNL1        0.1023
      9 C         139.2737  139.6499  167.5078 C.ar    1  UNL1        0.0902
     10 C         140.2162  140.2990  166.5381 C.ar    1  UNL1        0.0040
     11 C         141.3404  141.1541  167.0431 C.ar    1  UNL1        0.0113
     12 C         142.2829  141.8033  166.0734 C.3     1  UNL1        0.1213
     13 C         144.1679  143.1015  164.1340 C.3     1  UNL1        0.0704
     14 C         145.3101  142.2402  164.5850 C.3     1  UNL1        0.0087
     15 C         145.8343  141.5019  163.3892 C.3     1  UNL1        0.0005
     16 C         145.0161  141.9069  162.1990 C.3     1  UNL1        0.0005
     17 C         143.9862  142.8955  162.6593 C.3     1  UNL1        0.0095
     18 C         142.8440  143.7568  162.2083 C.3     1  UNL1        0.0162
     19 C         142.3197  144.4952  163.4041 C.3     1  UNL1        0.0544
     20 C         143.1379  144.0902  164.5943 C.3     1  UNL1        0.0243
     21 N         141.1777  145.4678  163.4089 N.3     1  UNL1       -0.2996
     22 H         141.1638  145.9101  162.4900 H       1  UNL1        0.1232
     23 C         139.7832  144.9857  163.6786 C.3     1  UNL1        0.0539
     24 C         139.1571  144.8093  165.0303 C.3     1  UNL1        0.0157
     25 C         137.7568  144.3100  164.8310 C.3     1  UNL1        0.0014
     26 C         137.5174  144.1777  163.3561 C.3     1  UNL1        0.0014
     27 C         138.7697  144.5953  162.6439 C.3     1  UNL1        0.0157
     28 C         138.1495  138.7947  167.0028 C.3     1  UNL1        0.4200
     29 F         137.0253  137.9396  166.4979 F       1  UNL1       -0.1658
     30 F         137.4999  138.8511  168.3537 F       1  UNL1       -0.1658
     31 F         138.7992  138.7383  165.6520 F       1  UNL1       -0.1658
@<TRIPOS>BOND
     1     1     2    2
     2     2     3   am
     3     3     4    1
     4     4     5    1
     5     5     6    1
     6     6     7   ar
     7     7     8   ar
     8     8     9   ar
     9     9    28    1
    10    28    29    1
    11    28    30    1
    12    28    31    1
    13     9    10   ar
    14    10    11   ar
    15    11    12    1
    16    13     2    1
    17    13    14    1
    18    14    15    1
    19    15    16    1
    20    17    16    1
    21    17    18    1
    22    18    19    1
    23    19    21    1
    24    21    23    1
    25    23    24    1
    26    24    25    1
    27    25    26    1
    28    26    27    1
    29    19    20    1
    30    12     3    1
    31    17    13    1
    32    27    23    1
    33    11     6   ar
    34    20    13    1
    35    21    22    1
@<TRIPOS>MOLECULE
*****
 31 35 0 0 0
SMALL
GASTEIGER

@<TRIPOS>ATOM
      1 O         139.7208  137.5551  161.9803 O.2     1  UNL1       -0.2749
      2 C         140.4193  138.6254  162.7653 C.2     1  UNL1        0.2250
      3 N         140.0155  138.8997  164.1838 N.am    1  UNL1       -0.2750
      4 C         138.9132  138.1035  164.8171 C.3     1  UNL1        0.1000
      5 C         138.5095  138.3778  166.2354 C.3     1  UNL1        0.0670
      6 C         139.2081  139.4482  167.0205 C.ar    1  UNL1        0.0583
      7 N         138.8043  139.7224  168.4389 N.ar    1  UNL1       -0.2484
      8 C         139.5029  140.7928  169.2239 C.ar    1  UNL1        0.1023
      9 C         140.6052  141.5889  168.5906 C.ar    1  UNL1        0.0902
     10 C         141.0089  141.3147  167.1722 C.ar    1  UNL1        0.0040
     11 C         140.3104  140.2443  166.3872 C.ar    1  UNL1        0.0113
     12 C         140.7141  139.9700  164.9688 C.3     1  UNL1        0.1213
     13 C         141.5216  139.4216  162.1321 C.3     1  UNL1        0.0704
     14 C         142.0221  138.0234  162.3434 C.3     1  UNL1        0.0087
     15 C         143.4337  137.9554  161.8407 C.3     1  UNL1        0.0005
     16 C         143.8057  139.3115  161.3187 C.3     1  UNL1        0.0005
     17 C         142.6240  140.2177  161.4987 C.3     1  UNL1        0.0095
     18 C         142.1235  141.6158  161.2874 C.3     1  UNL1        0.0162
     19 C         140.7118  141.6838  161.7901 C.3     1  UNL1        0.0544
     20 C         140.3399  140.3277  162.3121 C.3     1  UNL1        0.0243
     21 N         139.8274  142.8953  161.7736 N.3     1  UNL1       -0.2996
     22 H         139.0203  142.6628  161.1949 H       1  UNL1        0.1232
     23 C         139.2923  143.4508  163.0600 C.3     1  UNL1        0.0539
     24 C         140.0996  143.7870  164.2788 C.3     1  UNL1        0.0157
     25 C         139.1621  144.3115  165.3256 C.3     1  UNL1        0.0014
     26 C         137.7753  144.2995  164.7538 C.3     1  UNL1        0.0014
     27 C         137.8558  143.7675  163.3537 C.3     1  UNL1        0.0157
     28 C         141.3038  142.6593  169.3756 C.3     1  UNL1        0.4200
     29 F         142.0023  143.7297  170.1607 F       1  UNL1       -0.1658
     30 F         142.4024  141.6951  169.7126 F       1  UNL1       -0.1658
     31 F         140.2052  143.6234  169.0386 F       1  UNL1       -0.1658
@<TRIPOS>BOND
     1     1     2    2
     2     2     3   am
     3     3     4    1
     4     4     5    1
     5     5     6    1
     6     6     7   ar
     7     7     8   ar
     8     8     9   ar
     9     9    28    1
    10    28    29    1
    11    28    30    1
    12    28    31    1
    13     9    10   ar
    14    10    11   ar
    15    11    12    1
    16    13     2    1
    17    13    14    1
    18    14    15    1
    19    15    16    1
    20    17    16    1
    21    17    18    1
    22    18    19    1
    23    19    21    1
    24    21    23    1
    25    23    24    1
    26    24    25    1
    27    25    26    1
    28    26    27    1
    29    19    20    1
    30    12     3    1
    31    17    13    1
    32    27    23    1
    33    11     6   ar
    34    20    13    1
    35    21    22    1
@<TRIPOS>MOLECULE
*****
 31 35 0 0 0
SMALL
GASTEIGER

@<TRIPOS>ATOM
      1 O         143.4818  138.8927  167.7856 O.2     1  UNL1       -0.2749
      2 C         142.6266  140.0746  167.4368 C.2     1  UNL1        0.2250
      3 N         142.7592  140.7255  166.0919 N.am    1  UNL1       -0.2750
      4 C         143.7469  140.1945  165.0958 C.3     1  UNL1        0.1000
      5 C         143.8795  140.8453  163.7509 C.3     1  UNL1        0.0670
      6 C         143.0242  142.0272  163.4021 C.ar    1  UNL1        0.0583
      7 N         143.1568  142.6781  162.0572 N.ar    1  UNL1       -0.2484
      8 C         142.3016  143.8600  161.7084 C.ar    1  UNL1        0.1023
      9 C         141.3138  144.3911  162.7045 C.ar    1  UNL1        0.0902
     10 C         141.1812  143.7402  164.0494 C.ar    1  UNL1        0.0040
     11 C         142.0365  142.5583  164.3982 C.ar    1  UNL1        0.0113
     12 C         141.9039  141.9074  165.7431 C.3     1  UNL1        0.1213
     13 C         141.6388  140.6056  168.4329 C.3     1  UNL1        0.0704
     14 C         143.0001  141.1027  168.8199 C.3     1  UNL1        0.0087
     15 C         142.8536  141.9409  170.0552 C.3     1  UNL1        0.0005
     16 C         141.4018  141.9620  170.4317 C.3     1  UNL1        0.0005
     17 C         140.6510  141.1367  169.4291 C.3     1  UNL1        0.0095
     18 C         139.2897  140.6397  169.0421 C.3     1  UNL1        0.0162
     19 C         139.4361  139.8014  167.8068 C.3     1  UNL1        0.0544
     20 C         140.8879  139.7804  167.4303 C.3     1  UNL1        0.0243
     21 N         138.3256  139.1063  167.0762 N.3     1  UNL1       -0.2996
     22 H         137.4894  139.6771  167.1996 H       1  UNL1        0.1232
     23 C         138.4504  138.8329  165.6067 C.3     1  UNL1        0.0539
     24 C         138.8762  137.5364  164.9841 C.3     1  UNL1        0.0157
     25 C         138.8603  137.7102  163.4943 C.3     1  UNL1        0.0014
     26 C         138.4246  139.1143  163.1962 C.3     1  UNL1        0.0014
     27 C         138.1713  139.8081  164.5017 C.3     1  UNL1        0.0157
     28 C         140.4585  145.5730  162.3557 C.3     1  UNL1        0.4200
     29 F         139.6033  146.7549  162.0069 F       1  UNL1       -0.1658
     30 F         139.7926  145.4869  163.6970 F       1  UNL1       -0.1658
     31 F         141.1245  145.6590  161.0144 F       1  UNL1       -0.1658
@<TRIPOS>BOND
     1     1     2    2
     2     2     3   am
     3     3     4    1
     4     4     5    1
     5     5     6    1
     6     6     7   ar
     7     7     8   ar
     8     8     9   ar
     9     9    28    1
    10    28    29    1
    11    28    30    1
    12    28    31    1
    13     9    10   ar
    14    10    11   ar
    15    11    12    1
    16    13     2    1
    17    13    14    1
    18    14    15    1
    19    15    16    1
    20    17    16    1
    21    17    18    1
    22    18    19    1
    23    19    21    1
    24    21    23    1
    25    23    24    1
    26    24    25    1
    27    25    26    1
    28    26    27    1
    29    19    20    1
    30    12     3    1
    31    17    13    1
    32    27    23    1
    33    11     6   ar
    34    20    13    1
    35    21    22    1
@<TRIPOS>MOLECULE
*****
 31 35 0 0 0
SMALL
GASTEIGER

@<TRIPOS>ATOM
      1 O         142.0832  139.9283  162.0376 O.2     1  UNL1       -0.2749
      2 C         142.2888  140.6124  163.3566 C.2     1  UNL1        0.2250
      3 N         141.3838  140.3014  164.5118 N.am    1  UNL1       -0.2750
      4 C         140.2734  139.3064  164.3480 C.3     1  UNL1        0.1000
      5 C         139.3685  138.9955  165.5032 C.3     1  UNL1        0.0670
      6 C         139.5741  139.6795  166.8222 C.ar    1  UNL1        0.0583
      7 N         138.6692  139.3686  167.9774 N.ar    1  UNL1       -0.2484
      8 C         138.8748  140.0526  169.2964 C.ar    1  UNL1        0.1023
      9 C         139.9853  141.0476  169.4602 C.ar    1  UNL1        0.0902
     10 C         140.8901  141.3586  168.3051 C.ar    1  UNL1        0.0040
     11 C         140.6846  140.6745  166.9860 C.ar    1  UNL1        0.0113
     12 C         141.5894  140.9855  165.8308 C.3     1  UNL1        0.1213
     13 C         143.3992  141.6074  163.5204 C.3     1  UNL1        0.0704
     14 C         143.9964  140.2326  163.5778 C.3     1  UNL1        0.0087
     15 C         145.4760  140.3779  163.7771 C.3     1  UNL1        0.0005
     16 C         145.7933  141.8425  163.8429 C.3     1  UNL1        0.0005
     17 C         144.5097  142.6024  163.6843 C.3     1  UNL1        0.0095
     18 C         143.9125  143.9771  163.6269 C.3     1  UNL1        0.0162
     19 C         142.4329  143.8318  163.4276 C.3     1  UNL1        0.0544
     20 C         142.1157  142.3672  163.3618 C.3     1  UNL1        0.0243
     21 N         141.4441  144.9541  163.3140 N.3     1  UNL1       -0.2996
     22 H         141.5176  145.3161  162.3632 H       1  UNL1        0.1232
     23 C         139.9881  144.6996  163.5691 C.3     1  UNL1        0.0539
     24 C         139.3408  144.5552  164.9146 C.3     1  UNL1        0.0157
     25 C         137.8763  144.3111  164.7006 C.3     1  UNL1        0.0014
     26 C         137.6186  144.3046  163.2229 C.3     1  UNL1        0.0014
     27 C         138.9237  144.5447  162.5236 C.3     1  UNL1        0.0157
     28 C         140.1909  141.7317  170.7793 C.3     1  UNL1        0.4200
     29 F         140.3965  142.4157  172.0983 F       1  UNL1       -0.1658
     30 F         139.9496  143.0610  170.1275 F       1  UNL1       -0.1658
     31 F         140.4321  140.4024  171.4310 F       1  UNL1       -0.1658
@<TRIPOS>BOND
     1     1     2    2
     2     2     3   am
     3     3     4    1
     4     4     5    1
     5     5     6    1
     6     6     7   ar
     7     7     8   ar
     8     8     9   ar
     9     9    28    1
    10    28    29    1
    11    28    30    1
    12    28    31    1
    13     9    10   ar
    14    10    11   ar
    15    11    12    1
    16    13     2    1
    17    13    14    1
    18    14    15    1
    19    15    16    1
    20    17    16    1
    21    17    18    1
    22    18    19    1
    23    19    21    1
    24    21    23    1
    25    23    24    1
    26    24    25    1
    27    25    26    1
    28    26    27    1
    29    19    20    1
    30    12     3    1
    31    17    13    1
    32    27    23    1
    33    11     6   ar
    34    20    13    1
    35    21    22    1
@<TRIPOS>MOLECULE
*****
 31 35 0 0 0
SMALL
GASTEIGER

@<TRIPOS>ATOM
      1 O         142.6621  138.7286  167.0833 O.2     1  UNL1       -0.2749
      2 C         141.7245  139.4865  166.1907 C.2     1  UNL1        0.2250
      3 N         142.1182  140.8333  165.6603 N.am    1  UNL1       -0.2750
      4 C         143.4494  141.4221  166.0225 C.3     1  UNL1        0.1000
      5 C         143.8430  142.7688  165.4921 C.3     1  UNL1        0.0670
      6 C         142.9055  143.5267  164.5995 C.ar    1  UNL1        0.0583
      7 N         143.2992  144.8735  164.0691 N.ar    1  UNL1       -0.2484
      8 C         142.3617  145.6313  163.1765 C.ar    1  UNL1        0.1023
      9 C         141.0305  145.0424  162.8143 C.ar    1  UNL1        0.0902
     10 C         140.6368  143.6957  163.3447 C.ar    1  UNL1        0.0040
     11 C         141.5744  142.9378  164.2373 C.ar    1  UNL1        0.0113
     12 C         141.1807  141.5911  164.7677 C.3     1  UNL1        0.1213
     13 C         140.3934  138.8976  165.8285 C.3     1  UNL1        0.0704
     14 C         140.2228  139.6860  167.0932 C.3     1  UNL1        0.0087
     15 C         138.7862  139.5844  167.5126 C.3     1  UNL1        0.0005
     16 C         138.0689  138.7332  166.5072 C.3     1  UNL1        0.0005
     17 C         139.0622  138.3087  165.4664 C.3     1  UNL1        0.0095
     18 C         139.2327  137.5204  164.2017 C.3     1  UNL1        0.0162
     19 C         140.6693  137.6220  163.7823 C.3     1  UNL1        0.0544
     20 C         141.3866  138.4732  164.7877 C.3     1  UNL1        0.0243
     21 N         141.2811  136.9843  162.5702 N.3     1  UNL1       -0.2996
     22 H         140.5112  136.6227  162.0074 H       1  UNL1        0.1232
     23 C         142.1452  137.7960  161.6512 C.3     1  UNL1        0.0539
     24 C         141.6930  138.4925  160.4020 C.3     1  UNL1        0.0157
     25 C         142.8815  139.1806  159.7988 C.3     1  UNL1        0.0014
     26 C         144.0683  138.9094  160.6752 C.3     1  UNL1        0.0014
     27 C         143.6132  138.0537  161.8200 C.3     1  UNL1        0.0157
     28 C         140.0929  145.8002  161.9217 C.3     1  UNL1        0.4200
     29 F         139.1554  146.5580  161.0291 F       1  UNL1       -0.1658
     30 F         141.1173  145.7771  160.8261 F       1  UNL1       -0.1658
     31 F         139.0686  145.8233  163.0172 F       1  UNL1       -0.1658
@<TRIPOS>BOND
     1     1     2    2
     2     2     3   am
     3     3     4    1
     4     4     5    1
     5     5     6    1
     6     6     7   ar
     7     7     8   ar
     8     8     9   ar
     9     9    28    1
    10    28    29    1
    11    28    30    1
    12    28    31    1
    13     9    10   ar
    14    10    11   ar
    15    11    12    1
    16    13     2    1
    17    13    14    1
    18    14    15    1
    19    15    16    1
    20    17    16    1
    21    17    18    1
    22    18    19    1
    23    19    21    1
    24    21    23    1
    25    23    24    1
    26    24    25    1
    27    25    26    1
    28    26    27    1
    29    19    20    1
    30    12     3    1
    31    17    13    1
    32    27    23    1
    33    11     6   ar
    34    20    13    1
    35    21    22    1
@<TRIPOS>MOLECULE
*****
 31 35 0 0 0
SMALL
GASTEIGER

@<TRIPOS>ATOM
      1 O         144.2959  139.2844  162.3921 O.2     1  UNL1       -0.2749
      2 C         143.3934  140.1747  163.1939 C.2     1  UNL1        0.2250
      3 N         143.1856  139.9110  164.6559 N.am    1  UNL1       -0.2750
      4 C         143.8802  138.7570  165.3160 C.3     1  UNL1        0.1000
      5 C         143.6723  138.4933  166.7779 C.3     1  UNL1        0.0670
      6 C         142.7698  139.3837  167.5797 C.ar    1  UNL1        0.0583
      7 N         142.5620  139.1200  169.0417 N.ar    1  UNL1       -0.2484
      8 C         141.6595  140.0103  169.8435 C.ar    1  UNL1        0.1023
      9 C         140.9649  141.1643  169.1833 C.ar    1  UNL1        0.0902
     10 C         141.1728  141.4280  167.7214 C.ar    1  UNL1        0.0040
     11 C         142.0752  140.5377  166.9196 C.ar    1  UNL1        0.0113
     12 C         142.2831  140.8013  165.4577 C.3     1  UNL1        0.1213
     13 C         142.6988  141.3287  162.5338 C.3     1  UNL1        0.0704
     14 C         144.1710  141.6163  162.5407 C.3     1  UNL1        0.0087
     15 C         144.3862  142.9481  161.8849 C.3     1  UNL1        0.0005
     16 C         143.0471  143.4835  161.4726 C.3     1  UNL1        0.0005
     17 C         142.0042  142.4827  161.8736 C.3     1  UNL1        0.0095
     18 C         140.5321  142.1951  161.8666 C.3     1  UNL1        0.0162
     19 C         140.3168  140.8634  162.5225 C.3     1  UNL1        0.0544
     20 C         141.6559  140.3279  162.9348 C.3     1  UNL1        0.0243
     21 N         138.9945  140.1860  162.7296 N.3     1  UNL1       -0.2996
     22 H         138.8882  139.5102  161.9731 H       1  UNL1        0.1232
     23 C         138.7204  139.4514  164.0083 C.3     1  UNL1        0.0539
     24 C         138.2485  140.0642  165.2935 C.3     1  UNL1        0.0157
     25 C         138.1064  138.9664  166.3058 C.3     1  UNL1        0.0014
     26 C         138.4905  137.6751  165.6461 C.3     1  UNL1        0.0014
     27 C         138.8699  137.9748  164.2262 C.3     1  UNL1        0.0157
     28 C         140.0624  142.0547  169.9851 C.3     1  UNL1        0.4200
     29 F         139.1600  142.9450  170.7869 F       1  UNL1       -0.1658
     30 F         138.9972  140.9989  169.9584 F       1  UNL1       -0.1658
     31 F         141.1276  143.1104  170.0117 F       1  UNL1       -0.1658
@<TRIPOS>BOND
     1     1     2    2
     2     2     3   am
     3     3     4    1
     4     4     5    1
     5     5     6    1
     6     6     7   ar
     7     7     8   ar
     8     8     9   ar
     9     9    28    1
    10    28    29    1
    11    28    30    1
    12    28    31    1
    13     9    10   ar
    14    10    11   ar
    15    11    12    1
    16    13     2    1
    17    13    14    1
    18    14    15    1
    19    15    16    1
    20    17    16    1
    21    17    18    1
    22    18    19    1
    23    19    21    1
    24    21    23    1
    25    23    24    1
    26    24    25    1
    27    25    26    1
    28    26    27    1
    29    19    20    1
    30    12     3    1
    31    17    13    1
    32    27    23    1
    33    11     6   ar
    34    20    13    1
    35    21    22    1
@<TRIPOS>MOLECULE
*****
 31 35 0 0 0
SMALL
GASTEIGER

@<TRIPOS>ATOM
      1 O         143.6512  138.4658  166.9620 O.2     1  UNL1       -0.2749
      2 C         142.6874  139.5838  166.6946 C.2     1  UNL1        0.2250
      3 N         142.8692  140.4586  165.4897 N.am    1  UNL1       -0.2750
      4 C         144.0146  140.2155  164.5522 C.3     1  UNL1        0.1000
      5 C         144.1963  141.0903  163.3474 C.3     1  UNL1        0.0670
      6 C         143.2325  142.2082  163.0801 C.ar    1  UNL1        0.0583
      7 N         143.4143  143.0830  161.8752 N.ar    1  UNL1       -0.2484
      8 C         142.4505  144.2010  161.6078 C.ar    1  UNL1        0.1023
      9 C         141.3051  144.4441  162.5454 C.ar    1  UNL1        0.0902
     10 C         141.1234  143.5692  163.7502 C.ar    1  UNL1        0.0040
     11 C         142.0871  142.4513  164.0175 C.ar    1  UNL1        0.0113
     12 C         141.9055  141.5765  165.2224 C.3     1  UNL1        0.1213
     13 C         141.5420  139.8269  167.6321 C.3     1  UNL1        0.0704
     14 C         142.8168  140.0582  168.3880 C.3     1  UNL1        0.0087
     15 C         142.4593  140.4443  169.7927 C.3     1  UNL1        0.0005
     16 C         140.9635  140.4516  169.9049 C.3     1  UNL1        0.0005
     17 C         140.3966  140.0700  168.5696 C.3     1  UNL1        0.0095
     18 C         139.1218  139.8387  167.8137 C.3     1  UNL1        0.0162
     19 C         139.4794  139.4526  166.4090 C.3     1  UNL1        0.0544
     20 C         140.9751  139.4453  166.2968 C.3     1  UNL1        0.0243
     21 N         138.5111  139.1304  165.3096 N.3     1  UNL1       -0.2996
     22 H         137.6305  138.8769  165.7577 H       1  UNL1        0.1232
     23 C         138.1867  140.1616  164.2698 C.3     1  UNL1        0.0539
     24 C         138.0726  139.9199  162.7938 C.3     1  UNL1        0.0157
     25 C         137.7349  141.2245  162.1351 C.3     1  UNL1        0.0014
     26 C         137.6401  142.2725  163.2041 C.3     1  UNL1        0.0014
     27 C         137.9194  141.6156  164.5234 C.3     1  UNL1        0.0157
     28 C         140.3414  145.5620  162.2780 C.3     1  UNL1        0.4200
     29 F         139.3776  146.6799  162.0106 F       1  UNL1       -0.1658
     30 F         140.9571  145.7694  160.9260 F       1  UNL1       -0.1658
     31 F         139.7257  145.3545  163.6300 F       1  UNL1       -0.1658
@<TRIPOS>BOND
     1     1     2    2
     2     2     3   am
     3     3     4    1
     4     4     5    1
     5     5     6    1
     6     6     7   ar
     7     7     8   ar
     8     8     9   ar
     9     9    28    1
    10    28    29    1
    11    28    30    1
    12    28    31    1
    13     9    10   ar
    14    10    11   ar
    15    11    12    1
    16    13     2    1
    17    13    14    1
    18    14    15    1
    19    15    16    1
    20    17    16    1
    21    17    18    1
    22    18    19    1
    23    19    21    1
    24    21    23    1
    25    23    24    1
    26    24    25    1
    27    25    26    1
    28    26    27    1
    29    19    20    1
    30    12     3    1
    31    17    13    1
    32    27    23    1
    33    11     6   ar
    34    20    13    1
    35    21    22    1
@<TRIPOS>MOLECULE
*****
 31 35 0 0 0
SMALL
GASTEIGER

@<TRIPOS>ATOM
      1 O         142.3081  137.6233  162.6067 O.2     1  UNL1       -0.2749
      2 C         141.5501  138.6760  163.3600 C.2     1  UNL1        0.2250
      3 N         141.8979  138.9728  164.7887 N.am    1  UNL1       -0.2750
      4 C         143.0035  138.2169  165.4641 C.3     1  UNL1        0.1000
      5 C         143.3512  138.5136  166.8927 C.3     1  UNL1        0.0670
      6 C         142.5932  139.5663  167.6459 C.ar    1  UNL1        0.0583
      7 N         142.9409  139.8631  169.0746 N.ar    1  UNL1       -0.2484
      8 C         142.1830  140.9157  169.8279 C.ar    1  UNL1        0.1023
      9 C         141.0773  141.6716  169.1525 C.ar    1  UNL1        0.0902
     10 C         140.7296  141.3749  167.7238 C.ar    1  UNL1        0.0040
     11 C         141.4876  140.3222  166.9706 C.ar    1  UNL1        0.0113
     12 C         141.1399  140.0254  165.5420 C.3     1  UNL1        0.1213
     13 C         140.4445  139.4319  162.6846 C.3     1  UNL1        0.0704
     14 C         139.8921  138.1155  163.1450 C.3     1  UNL1        0.0087
     15 C         138.4451  138.0578  162.7542 C.3     1  UNL1        0.0005
     16 C         138.1031  139.3385  162.0523 C.3     1  UNL1        0.0005
     17 C         139.3388  140.1878  162.0093 C.3     1  UNL1        0.0095
     18 C         139.8911  141.5042  161.5489 C.3     1  UNL1        0.0162
     19 C         141.3382  141.5619  161.9397 C.3     1  UNL1        0.0544
     20 C         141.6802  140.2811  162.6416 C.3     1  UNL1        0.0243
     21 N         142.2783  142.7005  161.6750 N.3     1  UNL1       -0.2996
     22 H         141.7459  143.4113  161.1733 H       1  UNL1        0.1232
     23 C         142.9566  143.3944  162.8188 C.3     1  UNL1        0.0539
     24 C         142.9599  144.8721  163.0766 C.3     1  UNL1        0.0157
     25 C         143.7561  145.1235  164.3227 C.3     1  UNL1        0.0014
     26 C         144.2448  143.8011  164.8351 C.3     1  UNL1        0.0014
     27 C         143.7507  142.7325  163.9056 C.3     1  UNL1        0.0157
     28 C         140.3193  142.7243  169.9057 C.3     1  UNL1        0.4200
     29 F         139.5614  143.7769  170.6590 F       1  UNL1       -0.1658
     30 F         140.3266  141.8548  171.1280 F       1  UNL1       -0.1658
     31 F         140.3121  143.5937  168.6834 F       1  UNL1       -0.1658
@<TRIPOS>BOND
     1     1     2    2
     2     2     3   am
     3     3     4    1
     4     4     5    1
     5     5     6    1
     6     6     7   ar
     7     7     8   ar
     8     8     9   ar
     9     9    28    1
    10    28    29    1
    11    28    30    1
    12    28    31    1
    13     9    10   ar
    14    10    11   ar
    15    11    12    1
    16    13     2    1
    17    13    14    1
    18    14    15    1
    19    15    16    1
    20    17    16    1
    21    17    18    1
    22    18    19    1
    23    19    21    1
    24    21    23    1
    25    23    24    1
    26    24    25    1
    27    25    26    1
    28    26    27    1
    29    19    20    1
    30    12     3    1
    31    17    13    1
    32    27    23    1
    33    11     6   ar
    34    20    13    1
    35    21    22    1
