@<TRIPOS>MOLECULE
*****
 25 26 0 0 0
SMALL
GASTEIGER

@<TRIPOS>ATOM
      1 C         139.7240  145.3687  162.0075 C.3     1  UNL1        0.0897
      2 N         138.6345  141.2980  163.5863 N.3     1  UNL1       -0.2727
      3 C         140.0633  141.7541  163.6105 C.3     1  UNL1        0.0721
      4 C         140.4264  143.1110  163.0843 C.3     1  UNL1        0.0191
      5 C         139.3608  144.0118  162.5338 C.3     1  UNL1        0.0224
      6 C         137.9321  143.5557  162.5096 C.3     1  UNL1        0.0191
      7 C         137.5689  142.1988  163.0359 C.3     1  UNL1        0.0721
      8 C         138.2714  139.9412  164.1126 C.3     1  UNL1        0.0721
      9 C         138.5804  138.7159  163.3045 C.3     1  UNL1        0.0173
     10 C         139.2748  137.6711  165.0151 C.3     1  UNL1        0.0000
     11 C         139.7924  137.8922  163.6247 C.3     1  UNL1        0.0013
     12 C         140.3099  138.1132  162.2343 C.3     1  UNL1        0.0000
     13 C         141.0044  137.0685  163.9449 C.3     1  UNL1        0.0000
     14 N         139.7588  145.6147  160.5282 N.am    1  UNL1       -0.3009
     15 C         140.9901  145.2776  159.7407 C.2     1  UNL1        0.2459
     16 O         142.1866  144.6945  160.4323 O.2     1  UNL1       -0.2701
     17 H         138.9736  145.9975  160.0743 H       1  UNL1        0.1497
     18 C         141.0249  145.5237  158.2613 C.ar    1  UNL1        0.0542
     19 C         142.1782  145.0212  157.4444 C.ar    1  UNL1        0.0054
     20 C         142.2130  145.2673  155.9651 C.ar    1  UNL1        0.0124
     21 C         141.0945  146.0158  155.3028 C.ar    1  UNL1        0.0682
     22 CL        141.1293  146.2619  153.8235 Cl      1  UNL1       -0.0814
     23 C         139.9412  146.5183  156.1198 C.ar    1  UNL1        0.0683
     24 CL        138.8227  147.2668  155.4575 Cl      1  UNL1       -0.0814
     25 C         139.9064  146.2722  157.5990 C.ar    1  UNL1        0.0168
@<TRIPOS>BOND
     1    10    11    1
     2    11    12    1
     3    11    13    1
     4    11     9    1
     5     9     8    1
     6     8     2    1
     7     2     3    1
     8     3     4    1
     9     4     5    1
    10     5     1    1
    11     1    14    1
    12    14    15   am
    13    15    16    2
    14    15    18    1
    15    18    19   ar
    16    19    20   ar
    17    20    21   ar
    18    21    22    1
    19    21    23   ar
    20    23    24    1
    21    23    25   ar
    22     5     6    1
    23     6     7    1
    24     7     2    1
    25    25    18   ar
    26    14    17    1
@<TRIPOS>MOLECULE
*****
 25 26 0 0 0
SMALL
GASTEIGER

@<TRIPOS>ATOM
      1 C         142.1773  138.1479  157.7782 C.3     1  UNL1        0.0897
      2 N         139.6378  138.7492  161.4442 N.3     1  UNL1       -0.2727
      3 C         141.0883  138.3947  161.5865 C.3     1  UNL1        0.0721
      4 C         141.9348  138.1942  160.3645 C.3     1  UNL1        0.0191
      5 C         141.3308  138.3483  159.0002 C.3     1  UNL1        0.0224
      6 C         139.8803  138.7029  158.8579 C.3     1  UNL1        0.0191
      7 C         139.0338  138.9033  160.0799 C.3     1  UNL1        0.0721
      8 C         138.7913  138.9497  162.6662 C.3     1  UNL1        0.0721
      9 C         139.4382  139.2489  163.9859 C.3     1  UNL1        0.0173
     10 C         138.8809  137.5398  165.1121 C.3     1  UNL1        0.0000
     11 C         138.6823  139.0191  165.2610 C.3     1  UNL1        0.0013
     12 C         138.4838  140.4985  165.4099 C.3     1  UNL1        0.0000
     13 C         137.9264  138.7894  166.5361 C.3     1  UNL1        0.0000
     14 N         142.8456  136.8268  157.5373 N.am    1  UNL1       -0.3009
     15 C         142.2574  135.8566  156.5561 C.2     1  UNL1        0.2459
     16 O         141.0009  136.2075  155.8159 O.2     1  UNL1       -0.2701
     17 H         143.6704  136.5965  158.0231 H       1  UNL1        0.1497
     18 C         142.9258  134.5355  156.3151 C.ar    1  UNL1        0.0542
     19 C         142.6181  133.7551  155.0717 C.ar    1  UNL1        0.0054
     20 C         143.2865  132.4340  154.8307 C.ar    1  UNL1        0.0124
     21 C         144.2625  131.8934  155.8333 C.ar    1  UNL1        0.0682
     22 CL        144.9309  130.5723  155.5924 Cl      1  UNL1       -0.0814
     23 C         144.5702  132.6739  157.0768 C.ar    1  UNL1        0.0683
     24 CL        145.5462  132.1333  158.0793 Cl      1  UNL1       -0.0814
     25 C         143.9018  133.9949  157.3177 C.ar    1  UNL1        0.0168
@<TRIPOS>BOND
     1    10    11    1
     2    11    12    1
     3    11    13    1
     4    11     9    1
     5     9     8    1
     6     8     2    1
     7     2     3    1
     8     3     4    1
     9     4     5    1
    10     5     1    1
    11     1    14    1
    12    14    15   am
    13    15    16    2
    14    15    18    1
    15    18    19   ar
    16    19    20   ar
    17    20    21   ar
    18    21    22    1
    19    21    23   ar
    20    23    24    1
    21    23    25   ar
    22     5     6    1
    23     6     7    1
    24     7     2    1
    25    25    18   ar
    26    14    17    1
@<TRIPOS>MOLECULE
*****
 25 26 0 0 0
SMALL
GASTEIGER

@<TRIPOS>ATOM
      1 C         139.8373  145.8412  162.0712 C.3     1  UNL1        0.0897
      2 N         138.6486  141.9947  164.0815 N.3     1  UNL1       -0.2727
      3 C         140.0863  142.4220  164.0705 C.3     1  UNL1        0.0721
      4 C         140.4826  143.7042  163.4004 C.3     1  UNL1        0.0191
      5 C         139.4411  144.5590  162.7413 C.3     1  UNL1        0.0224
      6 C         138.0033  144.1317  162.7524 C.3     1  UNL1        0.0191
      7 C         137.6070  142.8495  163.4225 C.3     1  UNL1        0.0721
      8 C         138.2523  140.7125  164.7517 C.3     1  UNL1        0.0721
      9 C         139.2675  139.9271  165.5278 C.3     1  UNL1        0.0173
     10 C         138.0457  138.8812  166.9111 C.3     1  UNL1        0.0000
     11 C         139.1785  139.8579  167.0236 C.3     1  UNL1        0.0013
     12 C         140.3114  140.8346  167.1361 C.3     1  UNL1        0.0000
     13 C         139.0896  139.7888  168.5194 C.3     1  UNL1        0.0000
     14 N         139.8558  145.9304  160.5740 N.am    1  UNL1       -0.3009
     15 C         141.0373  145.4155  159.8065 C.2     1  UNL1        0.2459
     16 O         142.2003  144.8114  160.5363 O.2     1  UNL1       -0.2701
     17 H         139.0925  146.3269  160.0950 H       1  UNL1        0.1497
     18 C         141.0558  145.5047  158.3092 C.ar    1  UNL1        0.0542
     19 C         142.2078  144.9321  157.5380 C.ar    1  UNL1        0.0054
     20 C         142.2263  145.0214  156.0407 C.ar    1  UNL1        0.0124
     21 C         141.0927  145.6831  155.3148 C.ar    1  UNL1        0.0682
     22 CL        141.1111  145.7724  153.8176 Cl      1  UNL1       -0.0814
     23 C         139.9406  146.2557  156.0861 C.ar    1  UNL1        0.0683
     24 CL        138.8070  146.9175  155.3602 Cl      1  UNL1       -0.0814
     25 C         139.9222  146.1665  157.5833 C.ar    1  UNL1        0.0168
@<TRIPOS>BOND
     1    10    11    1
     2    11    12    1
     3    11    13    1
     4    11     9    1
     5     9     8    1
     6     8     2    1
     7     2     3    1
     8     3     4    1
     9     4     5    1
    10     5     1    1
    11     1    14    1
    12    14    15   am
    13    15    16    2
    14    15    18    1
    15    18    19   ar
    16    19    20   ar
    17    20    21   ar
    18    21    22    1
    19    21    23   ar
    20    23    24    1
    21    23    25   ar
    22     5     6    1
    23     6     7    1
    24     7     2    1
    25    25    18   ar
    26    14    17    1
@<TRIPOS>MOLECULE
*****
 25 26 0 0 0
SMALL
GASTEIGER

@<TRIPOS>ATOM
      1 C         139.9327  146.2136  162.1265 C.3     1  UNL1        0.0897
      2 N         140.0751  142.8605  165.1243 N.3     1  UNL1       -0.2727
      3 C         138.7833  143.2036  164.4437 C.3     1  UNL1        0.0721
      4 C         138.7358  144.3213  163.4444 C.3     1  UNL1        0.0191
      5 C         139.9802  145.0959  163.1258 C.3     1  UNL1        0.0224
      6 C         141.2720  144.7528  163.8065 C.3     1  UNL1        0.0191
      7 C         141.3195  143.6351  164.8057 C.3     1  UNL1        0.0721
      8 C         140.1226  141.7429  166.1236 C.3     1  UNL1        0.0721
      9 C         139.9462  140.3238  165.6707 C.3     1  UNL1        0.0173
     10 C         139.3438  139.8463  167.6478 C.3     1  UNL1        0.0000
     11 C         138.8695  139.4720  166.2748 C.3     1  UNL1        0.0013
     12 C         138.3952  139.0978  164.9019 C.3     1  UNL1        0.0000
     13 C         137.7927  138.6202  166.8790 C.3     1  UNL1        0.0000
     14 N         139.5813  145.9269  160.6967 N.am    1  UNL1       -0.3009
     15 C         140.5919  145.2907  159.7891 C.2     1  UNL1        0.2459
     16 O         141.9540  144.9411  160.3112 O.2     1  UNL1       -0.2701
     17 H         138.6873  146.1563  160.3541 H       1  UNL1        0.1497
     18 C         140.2404  145.0040  158.3592 C.ar    1  UNL1        0.0542
     19 C         139.9342  143.6000  157.9292 C.ar    1  UNL1        0.0054
     20 C         139.5827  143.3133  156.4993 C.ar    1  UNL1        0.0124
     21 C         139.5375  144.4307  155.4996 C.ar    1  UNL1        0.0682
     22 CL        139.1861  144.1441  154.0699 Cl      1  UNL1       -0.0814
     23 C         139.8438  145.8348  155.9298 C.ar    1  UNL1        0.0683
     24 CL        139.7986  146.9521  154.9300 Cl      1  UNL1       -0.0814
     25 C         140.1952  146.1214  157.3595 C.ar    1  UNL1        0.0168
@<TRIPOS>BOND
     1    10    11    1
     2    11    12    1
     3    11    13    1
     4    11     9    1
     5     9     8    1
     6     8     2    1
     7     2     3    1
     8     3     4    1
     9     4     5    1
    10     5     1    1
    11     1    14    1
    12    14    15   am
    13    15    16    2
    14    15    18    1
    15    18    19   ar
    16    19    20   ar
    17    20    21   ar
    18    21    22    1
    19    21    23   ar
    20    23    24    1
    21    23    25   ar
    22     5     6    1
    23     6     7    1
    24     7     2    1
    25    25    18   ar
    26    14    17    1
@<TRIPOS>MOLECULE
*****
 25 26 0 0 0
SMALL
GASTEIGER

@<TRIPOS>ATOM
      1 C         138.5675  139.9459  163.5064 C.3     1  UNL1        0.0897
      2 N         139.4409  140.2545  167.9100 N.3     1  UNL1       -0.2727
      3 C         138.4751  139.2227  167.4075 C.3     1  UNL1        0.0721
      4 C         138.1839  139.1199  165.9396 C.3     1  UNL1        0.0191
      5 C         138.8586  140.0488  164.9743 C.3     1  UNL1        0.0224
      6 C         139.8245  141.0805  165.4768 C.3     1  UNL1        0.0191
      7 C         140.1156  141.1833  166.9447 C.3     1  UNL1        0.0721
      8 C         139.7321  140.3573  169.3779 C.3     1  UNL1        0.0721
      9 C         139.7894  141.7027  170.0387 C.3     1  UNL1        0.0173
     10 C         141.7322  141.1350  170.6735 C.3     1  UNL1        0.0000
     11 C         141.1042  142.4085  170.1901 C.3     1  UNL1        0.0013
     12 C         140.4762  143.6821  169.7068 C.3     1  UNL1        0.0000
     13 C         142.4190  143.1144  170.3416 C.3     1  UNL1        0.0000
     14 N         139.2565  140.8621  162.5391 N.am    1  UNL1       -0.3009
     15 C         138.5705  142.1109  162.0703 C.2     1  UNL1        0.2459
     16 O         137.1954  142.4435  162.5687 O.2     1  UNL1       -0.2701
     17 H         140.1590  140.6439  162.2120 H       1  UNL1        0.1497
     18 C         139.2596  143.0272  161.1029 C.ar    1  UNL1        0.0542
     19 C         140.1617  144.1126  161.6107 C.ar    1  UNL1        0.0054
     20 C         140.8508  145.0289  160.6434 C.ar    1  UNL1        0.0124
     21 C         140.6377  144.8596  159.1683 C.ar    1  UNL1        0.0682
     22 CL        141.3268  145.7758  158.2009 Cl      1  UNL1       -0.0814
     23 C         139.7355  143.7741  158.6605 C.ar    1  UNL1        0.0683
     24 CL        139.5224  143.6049  157.1854 Cl      1  UNL1       -0.0814
     25 C         139.0465  142.8579  159.6278 C.ar    1  UNL1        0.0168
@<TRIPOS>BOND
     1    10    11    1
     2    11    12    1
     3    11    13    1
     4    11     9    1
     5     9     8    1
     6     8     2    1
     7     2     3    1
     8     3     4    1
     9     4     5    1
    10     5     1    1
    11     1    14    1
    12    14    15   am
    13    15    16    2
    14    15    18    1
    15    18    19   ar
    16    19    20   ar
    17    20    21   ar
    18    21    22    1
    19    21    23   ar
    20    23    24    1
    21    23    25   ar
    22     5     6    1
    23     6     7    1
    24     7     2    1
    25    25    18   ar
    26    14    17    1
@<TRIPOS>MOLECULE
*****
 25 26 0 0 0
SMALL
GASTEIGER

@<TRIPOS>ATOM
      1 C         139.8218  145.9090  162.3261 C.3     1  UNL1        0.0897
      2 N         141.2569  143.0840  165.5214 N.3     1  UNL1       -0.2727
      3 C         142.1754  143.4815  164.4041 C.3     1  UNL1        0.0721
      4 C         141.6970  144.4232  163.3390 C.3     1  UNL1        0.0191
      5 C         140.3002  144.9673  163.3912 C.3     1  UNL1        0.0224
      6 C         139.3817  144.5698  164.5084 C.3     1  UNL1        0.0191
      7 C         139.8601  143.6281  165.5735 C.3     1  UNL1        0.0721
      8 C         141.7353  142.1423  166.5864 C.3     1  UNL1        0.0721
      9 C         141.0486  142.1066  167.9195 C.3     1  UNL1        0.0173
     10 C         140.5544  143.4906  169.4494 C.3     1  UNL1        0.0000
     11 C         141.7467  142.6356  169.1372 C.3     1  UNL1        0.0013
     12 C         142.9391  141.7806  168.8250 C.3     1  UNL1        0.0000
     13 C         142.4449  143.1646  170.3549 C.3     1  UNL1        0.0000
     14 N         140.4997  145.9349  160.9883 N.am    1  UNL1       -0.3009
     15 C         140.1641  144.8984  159.9572 C.2     1  UNL1        0.2459
     16 O         139.1506  143.8360  160.2640 O.2     1  UNL1       -0.2701
     17 H         141.1649  146.6322  160.7869 H       1  UNL1        0.1497
     18 C         140.8420  144.9243  158.6194 C.ar    1  UNL1        0.0542
     19 C         141.9838  143.9930  158.3390 C.ar    1  UNL1        0.0054
     20 C         142.6618  144.0189  157.0011 C.ar    1  UNL1        0.0124
     21 C         142.1978  144.9762  155.9437 C.ar    1  UNL1        0.0682
     22 CL        142.8756  145.0022  154.6059 Cl      1  UNL1       -0.0814
     23 C         141.0559  145.9076  156.2241 C.ar    1  UNL1        0.0683
     24 CL        140.5919  146.8650  155.1667 Cl      1  UNL1       -0.0814
     25 C         140.3780  145.8817  157.5619 C.ar    1  UNL1        0.0168
@<TRIPOS>BOND
     1    10    11    1
     2    11    12    1
     3    11    13    1
     4    11     9    1
     5     9     8    1
     6     8     2    1
     7     2     3    1
     8     3     4    1
     9     4     5    1
    10     5     1    1
    11     1    14    1
    12    14    15   am
    13    15    16    2
    14    15    18    1
    15    18    19   ar
    16    19    20   ar
    17    20    21   ar
    18    21    22    1
    19    21    23   ar
    20    23    24    1
    21    23    25   ar
    22     5     6    1
    23     6     7    1
    24     7     2    1
    25    25    18   ar
    26    14    17    1
@<TRIPOS>MOLECULE
*****
 25 26 0 0 0
SMALL
GASTEIGER

@<TRIPOS>ATOM
      1 C         139.8616  145.9900  162.2010 C.3     1  UNL1        0.0897
      2 N         141.0651  143.2225  165.5391 N.3     1  UNL1       -0.2727
      3 C         142.0713  143.6322  164.5049 C.3     1  UNL1        0.0721
      4 C         141.6702  144.5547  163.3922 C.3     1  UNL1        0.0191
      5 C         140.2628  145.0675  163.3137 C.3     1  UNL1        0.0224
      6 C         139.2565  144.6578  164.3479 C.3     1  UNL1        0.0191
      7 C         139.6577  143.7353  165.4606 C.3     1  UNL1        0.0721
      8 C         141.4663  142.3000  166.6518 C.3     1  UNL1        0.0721
      9 C         140.8643  142.4640  168.0158 C.3     1  UNL1        0.0173
     10 C         140.6316  143.5742  169.8083 C.3     1  UNL1        0.0000
     11 C         141.7427  142.7782  169.1904 C.3     1  UNL1        0.0013
     12 C         142.8538  141.9822  168.5725 C.3     1  UNL1        0.0000
     13 C         142.6210  143.0925  170.3650 C.3     1  UNL1        0.0000
     14 N         140.5818  145.9370  160.8863 N.am    1  UNL1       -0.3009
     15 C         140.2100  144.8997  159.8687 C.2     1  UNL1        0.2459
     16 O         139.1179  143.9153  160.1657 O.2     1  UNL1       -0.2701
     17 H         141.2986  146.5831  160.6914 H       1  UNL1        0.1497
     18 C         140.9303  144.8467  158.5540 C.ar    1  UNL1        0.0542
     19 C         140.6000  145.8375  157.4774 C.ar    1  UNL1        0.0054
     20 C         141.3203  145.7846  156.1626 C.ar    1  UNL1        0.0124
     21 C         142.3710  144.7408  155.9246 C.ar    1  UNL1        0.0682
     22 CL        143.0913  144.6879  154.6100 Cl      1  UNL1       -0.0814
     23 C         142.7013  143.7500  157.0013 C.ar    1  UNL1        0.0683
     24 CL        143.7520  142.7062  156.7633 Cl      1  UNL1       -0.0814
     25 C         141.9810  143.8030  158.3159 C.ar    1  UNL1        0.0168
@<TRIPOS>BOND
     1    10    11    1
     2    11    12    1
     3    11    13    1
     4    11     9    1
     5     9     8    1
     6     8     2    1
     7     2     3    1
     8     3     4    1
     9     4     5    1
    10     5     1    1
    11     1    14    1
    12    14    15   am
    13    15    16    2
    14    15    18    1
    15    18    19   ar
    16    19    20   ar
    17    20    21   ar
    18    21    22    1
    19    21    23   ar
    20    23    24    1
    21    23    25   ar
    22     5     6    1
    23     6     7    1
    24     7     2    1
    25    25    18   ar
    26    14    17    1
@<TRIPOS>MOLECULE
*****
 25 26 0 0 0
SMALL
GASTEIGER

@<TRIPOS>ATOM
      1 C         140.3016  145.9199  162.2410 C.3     1  UNL1        0.0897
      2 N         140.8502  143.0978  165.7029 N.3     1  UNL1       -0.2727
      3 C         139.5302  143.7783  165.4918 C.3     1  UNL1        0.0721
      4 C         139.3474  144.7190  164.3379 C.3     1  UNL1        0.0191
      5 C         140.4845  144.9792  163.3949 C.3     1  UNL1        0.0224
      6 C         141.8045  144.2988  163.6060 C.3     1  UNL1        0.0191
      7 C         141.9873  143.3581  164.7600 C.3     1  UNL1        0.0721
      8 C         141.0330  142.1572  166.8569 C.3     1  UNL1        0.0721
      9 C         140.5536  142.5453  168.2241 C.3     1  UNL1        0.0173
     10 C         142.4998  141.8560  168.7112 C.3     1  UNL1        0.0000
     11 C         141.5448  142.8463  169.3090 C.3     1  UNL1        0.0013
     12 C         140.5898  143.8365  169.9069 C.3     1  UNL1        0.0000
     13 C         142.5359  143.1472  170.3940 C.3     1  UNL1        0.0000
     14 N         139.6817  145.4309  160.9657 N.am    1  UNL1       -0.3009
     15 C         140.5522  144.9176  159.8572 C.2     1  UNL1        0.2459
     16 O         142.0426  144.8934  160.0239 O.2     1  UNL1       -0.2701
     17 H         138.7034  145.4468  160.8562 H       1  UNL1        0.1497
     18 C         139.9321  144.4286  158.5818 C.ar    1  UNL1        0.0542
     19 C         140.1219  145.2021  157.3108 C.ar    1  UNL1        0.0054
     20 C         139.5019  144.7131  156.0354 C.ar    1  UNL1        0.0124
     21 C         138.6920  143.4505  156.0312 C.ar    1  UNL1        0.0682
     22 CL        138.0720  142.9614  154.7559 Cl      1  UNL1       -0.0814
     23 C         138.5022  142.6769  157.3023 C.ar    1  UNL1        0.0683
     24 CL        137.6924  141.4143  157.2981 Cl      1  UNL1       -0.0814
     25 C         139.1223  143.1660  158.5776 C.ar    1  UNL1        0.0168
@<TRIPOS>BOND
     1    10    11    1
     2    11    12    1
     3    11    13    1
     4    11     9    1
     5     9     8    1
     6     8     2    1
     7     2     3    1
     8     3     4    1
     9     4     5    1
    10     5     1    1
    11     1    14    1
    12    14    15   am
    13    15    16    2
    14    15    18    1
    15    18    19   ar
    16    19    20   ar
    17    20    21   ar
    18    21    22    1
    19    21    23   ar
    20    23    24    1
    21    23    25   ar
    22     5     6    1
    23     6     7    1
    24     7     2    1
    25    25    18   ar
    26    14    17    1
@<TRIPOS>MOLECULE
*****
 25 26 0 0 0
SMALL
GASTEIGER

@<TRIPOS>ATOM
      1 C         142.5787  138.2369  157.9439 C.3     1  UNL1        0.0897
      2 N         144.2306  139.9667  161.7555 N.3     1  UNL1       -0.2727
      3 C         144.0011  140.8530  160.5673 C.3     1  UNL1        0.0721
      4 C         143.4504  140.2763  159.2968 C.3     1  UNL1        0.0191
      5 C         143.1293  138.8135  159.2144 C.3     1  UNL1        0.0224
      6 C         143.3588  137.9272  160.4026 C.3     1  UNL1        0.0191
      7 C         143.9095  138.5038  161.6731 C.3     1  UNL1        0.0721
      8 C         144.7813  140.5433  163.0261 C.3     1  UNL1        0.0721
      9 C         144.6952  139.7618  164.3035 C.3     1  UNL1        0.0173
     10 C         143.3944  138.5589  165.4700 C.3     1  UNL1        0.0000
     11 C         143.5860  140.0339  165.2759 C.3     1  UNL1        0.0013
     12 C         143.7776  141.5089  165.0818 C.3     1  UNL1        0.0000
     13 C         142.4768  140.3059  166.2483 C.3     1  UNL1        0.0000
     14 N         142.4345  136.7513  157.7951 N.am    1  UNL1       -0.3009
     15 C         143.2836  136.0108  156.8048 C.2     1  UNL1        0.2459
     16 O         144.2769  136.7559  155.9633 O.2     1  UNL1       -0.2701
     17 H         141.7826  136.2622  158.3474 H       1  UNL1        0.1497
     18 C         143.1394  134.5251  156.6561 C.ar    1  UNL1        0.0542
     19 C         144.0886  133.6048  157.3646 C.ar    1  UNL1        0.0054
     20 C         143.9444  132.1191  157.2159 C.ar    1  UNL1        0.0124
     21 C         142.8510  131.5538  156.3586 C.ar    1  UNL1        0.0682
     22 CL        142.7068  130.0682  156.2098 Cl      1  UNL1       -0.0814
     23 C         141.9018  132.4742  155.6501 C.ar    1  UNL1        0.0683
     24 CL        140.8084  131.9089  154.7928 Cl      1  UNL1       -0.0814
     25 C         142.0460  133.9598  155.7988 C.ar    1  UNL1        0.0168
@<TRIPOS>BOND
     1    10    11    1
     2    11    12    1
     3    11    13    1
     4    11     9    1
     5     9     8    1
     6     8     2    1
     7     2     3    1
     8     3     4    1
     9     4     5    1
    10     5     1    1
    11     1    14    1
    12    14    15   am
    13    15    16    2
    14    15    18    1
    15    18    19   ar
    16    19    20   ar
    17    20    21   ar
    18    21    22    1
    19    21    23   ar
    20    23    24    1
    21    23    25   ar
    22     5     6    1
    23     6     7    1
    24     7     2    1
    25    25    18   ar
    26    14    17    1
