@<TRIPOS>MOLECULE
*****
 28 31 0 0 0
SMALL
GASTEIGER

@<TRIPOS>ATOM
      1 C         141.3049  140.0728  167.8541 C.3     1  UNL1        0.2508
      2 N         140.1419  140.0017  168.7986 N.2     1  UNL1       -0.0586
      3 C         140.6791  139.7569  170.1777 C.2     1  UNL1        0.3016
      4 N         139.8642  139.6169  171.4293 N.pl3   1  UNL1       -0.2494
      5 C         142.1740  139.6767  170.0853 C.3     1  UNL1        0.1781
      6 S         142.5609  139.8719  168.6492 S.3     1  UNL1       -0.0729
      7 H         138.8830  139.6852  171.3880 H       1  UNL1        0.2881
      8 H         140.3107  139.4568  172.2920 H       1  UNL1        0.2881
      9 C         144.1298  140.4275  164.3692 C.ar    1  UNL1        0.1387
     10 C         143.4593  139.1178  164.6609 C.ar    1  UNL1        0.0368
     11 C         142.5177  138.9996  165.8225 C.ar    1  UNL1        0.0040
     12 C         142.2465  140.1910  166.6924 C.ar    1  UNL1        0.0357
     13 C         142.9170  141.5007  166.4008 C.ar    1  UNL1        0.0040
     14 C         143.8586  141.6189  165.2391 C.ar    1  UNL1        0.0368
     15 C         145.2464  141.8647  162.5152 C.3     1  UNL1        0.2525
     16 O         145.0714  140.5457  163.2076 O.3     1  UNL1       -0.4714
     17 C         140.2458  140.2984  166.8160 C.ar    1  UNL1        0.0355
     18 C         139.1695  139.2746  166.6079 C.ar    1  UNL1        0.0009
     19 C         138.1105  139.5002  165.5699 C.ar    1  UNL1       -0.0001
     20 C         138.1277  140.7496  164.7401 C.ar    1  UNL1        0.0000
     21 C         139.2040  141.7734  164.9481 C.ar    1  UNL1        0.0014
     22 C         140.2631  141.5478  165.9862 C.ar    1  UNL1        0.0010
     23 C         139.2213  143.0227  164.1183 C.ar    1  UNL1        0.0192
     24 C         140.4489  143.8840  164.0848 C.ar    1  UNL1        0.0031
     25 C         140.4662  145.1334  163.2549 C.ar    1  UNL1        0.0207
     26 C         139.2557  145.5216  162.4584 C.ar    1  UNL1        0.0989
     27 N         138.0281  144.6603  162.4919 N.ar    1  UNL1       -0.2423
     28 C         138.0109  143.4109  163.3219 C.ar    1  UNL1        0.0988
@<TRIPOS>BOND
     1    15    16    1
     2    16     9    1
     3     9    10   ar
     4    10    11   ar
     5    11    12   ar
     6    12     1    1
     7     1    17    1
     8    17    18   ar
     9    18    19   ar
    10    19    20   ar
    11    20    21   ar
    12    21    23    1
    13    23    24   ar
    14    24    25   ar
    15    25    26   ar
    16    26    27   ar
    17    27    28   ar
    18    21    22   ar
    19     1     2    1
    20     2     3    2
    21     3     4    1
    22     3     5    1
    23     5     6    1
    24    12    13   ar
    25    13    14   ar
    26    14     9   ar
    27     6     1    1
    28    22    17   ar
    29    28    23   ar
    30     4     7    1
    31     4     8    1
@<TRIPOS>MOLECULE
*****
 28 31 0 0 0
SMALL
GASTEIGER

@<TRIPOS>ATOM
      1 C         140.4925  140.8890  167.9938 C.3     1  UNL1        0.2508
      2 N         139.9963  139.7815  168.8754 N.2     1  UNL1       -0.0586
      3 C         140.1776  140.2083  170.3020 C.2     1  UNL1        0.3016
      4 N         139.8144  139.4049  171.5156 N.pl3   1  UNL1       -0.2494
      5 C         140.7858  141.5794  170.3020 C.3     1  UNL1        0.1781
      6 S         140.9805  142.0001  168.8754 S.3     1  UNL1       -0.0729
      7 H         139.4179  138.5096  171.4127 H       1  UNL1        0.2881
      8 H         139.9726  139.7728  172.4149 H       1  UNL1        0.2881
      9 C         141.7291  143.6344  164.6496 C.ar    1  UNL1        0.1387
     10 C         142.7704  142.8995  165.4405 C.ar    1  UNL1        0.0368
     11 C         142.3582  141.9843  166.5552 C.ar    1  UNL1        0.0040
     12 C         140.9047  141.8041  166.8790 C.ar    1  UNL1        0.0357
     13 C         139.8634  142.5391  166.0882 C.ar    1  UNL1        0.0040
     14 C         140.2756  143.4542  164.9734 C.ar    1  UNL1        0.0368
     15 C         143.5954  144.8204  163.2857 C.3     1  UNL1        0.2525
     16 O         142.1413  144.5496  163.5349 O.3     1  UNL1       -0.4714
     17 C         140.0907  139.9692  166.8791 C.ar    1  UNL1        0.0355
     18 C         138.7321  139.3334  166.8841 C.ar    1  UNL1        0.0009
     19 C         138.3304  138.4136  165.7694 C.ar    1  UNL1       -0.0001
     20 C         139.2872  138.1296  164.6497 C.ar    1  UNL1        0.0000
     21 C         140.6458  138.7653  164.6446 C.ar    1  UNL1        0.0014
     22 C         141.0475  139.6851  165.7593 C.ar    1  UNL1        0.0010
     23 C         141.6026  138.4812  163.5249 C.ar    1  UNL1        0.0192
     24 C         143.0260  138.9449  163.6189 C.ar    1  UNL1        0.0031
     25 C         143.9828  138.6609  162.4992 C.ar    1  UNL1        0.0207
     26 C         143.5162  137.9131  161.2854 C.ar    1  UNL1        0.0989
     27 N         142.0928  137.4494  161.1914 N.ar    1  UNL1       -0.2423
     28 C         141.1359  137.7335  162.3112 C.ar    1  UNL1        0.0988
@<TRIPOS>BOND
     1    15    16    1
     2    16     9    1
     3     9    10   ar
     4    10    11   ar
     5    11    12   ar
     6    12     1    1
     7     1    17    1
     8    17    18   ar
     9    18    19   ar
    10    19    20   ar
    11    20    21   ar
    12    21    23    1
    13    23    24   ar
    14    24    25   ar
    15    25    26   ar
    16    26    27   ar
    17    27    28   ar
    18    21    22   ar
    19     1     2    1
    20     2     3    2
    21     3     4    1
    22     3     5    1
    23     5     6    1
    24    12    13   ar
    25    13    14   ar
    26    14     9   ar
    27     6     1    1
    28    22    17   ar
    29    28    23   ar
    30     4     7    1
    31     4     8    1
@<TRIPOS>MOLECULE
*****
 28 31 0 0 0
SMALL
GASTEIGER

@<TRIPOS>ATOM
      1 C         141.6213  141.2168  167.8965 C.3     1  UNL1        0.2508
      2 N         141.7032  140.1089  168.9045 N.2     1  UNL1       -0.0586
      3 C         142.8218  140.4263  169.8522 C.2     1  UNL1        0.3016
      4 N         143.2549  139.5870  171.0176 N.pl3   1  UNL1       -0.2494
      5 C         143.4312  141.7302  169.4299 C.3     1  UNL1        0.1781
      6 S         142.6893  142.2188  168.2213 S.3     1  UNL1       -0.0729
      7 H         142.7900  138.7420  171.2154 H       1  UNL1        0.2881
      8 H         144.0040  139.8811  171.5846 H       1  UNL1        0.2881
      9 C         140.6641  144.0350  164.5215 C.ar    1  UNL1        0.1387
     10 C         139.6730  143.8256  165.6276 C.ar    1  UNL1        0.0368
     11 C         139.9920  142.8861  166.7527 C.ar    1  UNL1        0.0040
     12 C         141.3023  142.1562  166.7715 C.ar    1  UNL1        0.0357
     13 C         142.2934  142.3656  165.6653 C.ar    1  UNL1        0.0040
     14 C         141.9743  143.3051  164.5403 C.ar    1  UNL1        0.0368
     15 C         141.1278  144.9076  162.1187 C.3     1  UNL1        0.2525
     16 O         140.3450  144.9744  163.3964 O.3     1  UNL1       -0.4714
     17 C         140.4867  140.4111  167.3366 C.ar    1  UNL1        0.0355
     18 C         139.3501  139.9985  168.2242 C.ar    1  UNL1        0.0009
     19 C         138.2155  139.1929  167.6643 C.ar    1  UNL1       -0.0001
     20 C         138.2174  138.8000  166.2167 C.ar    1  UNL1        0.0000
     21 C         139.3539  139.2126  165.3290 C.ar    1  UNL1        0.0014
     22 C         140.4886  140.0182  165.8890 C.ar    1  UNL1        0.0010
     23 C         139.3558  138.8196  163.8815 C.ar    1  UNL1        0.0192
     24 C         138.2148  139.2204  162.9940 C.ar    1  UNL1        0.0031
     25 C         138.2167  138.8274  161.5464 C.ar    1  UNL1        0.0207
     26 C         139.3596  138.0336  160.9862 C.ar    1  UNL1        0.0989
     27 N         140.5006  137.6328  161.8736 N.ar    1  UNL1       -0.2423
     28 C         140.4986  138.0258  163.3213 C.ar    1  UNL1        0.0988
@<TRIPOS>BOND
     1    15    16    1
     2    16     9    1
     3     9    10   ar
     4    10    11   ar
     5    11    12   ar
     6    12     1    1
     7     1    17    1
     8    17    18   ar
     9    18    19   ar
    10    19    20   ar
    11    20    21   ar
    12    21    23    1
    13    23    24   ar
    14    24    25   ar
    15    25    26   ar
    16    26    27   ar
    17    27    28   ar
    18    21    22   ar
    19     1     2    1
    20     2     3    2
    21     3     4    1
    22     3     5    1
    23     5     6    1
    24    12    13   ar
    25    13    14   ar
    26    14     9   ar
    27     6     1    1
    28    22    17   ar
    29    28    23   ar
    30     4     7    1
    31     4     8    1
@<TRIPOS>MOLECULE
*****
 28 31 0 0 0
SMALL
GASTEIGER

@<TRIPOS>ATOM
      1 C         140.3380  141.0658  167.7814 C.3     1  UNL1        0.2508
      2 N         140.7623  142.0891  168.7928 N.2     1  UNL1       -0.0586
      3 C         140.0508  141.7917  170.0795 C.2     1  UNL1        0.3016
      4 N         140.1805  142.5656  171.3579 N.pl3   1  UNL1       -0.2494
      5 C         139.1869  140.5847  169.8633 C.3     1  UNL1        0.1781
      6 S         139.3644  140.1361  168.4430 S.3     1  UNL1       -0.0729
      7 H         140.7765  143.3480  171.4014 H       1  UNL1        0.2881
      8 H         139.6697  142.2911  172.1535 H       1  UNL1        0.2881
      9 C         139.6456  138.4654  164.1747 C.ar    1  UNL1        0.1387
     10 C         140.9565  138.4065  164.9013 C.ar    1  UNL1        0.0368
     11 C         141.1873  139.2733  166.1035 C.ar    1  UNL1        0.0040
     12 C         140.1072  140.1990  166.5792 C.ar    1  UNL1        0.0357
     13 C         138.7963  140.2580  165.8526 C.ar    1  UNL1        0.0040
     14 C         138.5655  139.3912  164.6503 C.ar    1  UNL1        0.0368
     15 C         138.3739  137.9796  161.9618 C.3     1  UNL1        0.2525
     16 O         139.4148  137.5987  162.9724 O.3     1  UNL1       -0.4714
     17 C         141.2634  141.8143  166.8685 C.ar    1  UNL1        0.0355
     18 C         142.7424  141.7923  167.1173 C.ar    1  UNL1        0.0009
     19 C         143.6677  142.5408  166.2044 C.ar    1  UNL1       -0.0001
     20 C         143.1141  143.3113  165.0427 C.ar    1  UNL1        0.0000
     21 C         141.6351  143.3334  164.7938 C.ar    1  UNL1        0.0014
     22 C         140.7097  142.5848  165.7067 C.ar    1  UNL1        0.0010
     23 C         141.0814  144.1039  163.6320 C.ar    1  UNL1        0.0192
     24 C         139.7291  144.7450  163.7334 C.ar    1  UNL1        0.0031
     25 C         139.1755  145.5156  162.5716 C.ar    1  UNL1        0.0207
     26 C         139.9741  145.6450  161.3084 C.ar    1  UNL1        0.0989
     27 N         141.3264  145.0038  161.2071 N.ar    1  UNL1       -0.2423
     28 C         141.8801  144.2333  162.3689 C.ar    1  UNL1        0.0988
@<TRIPOS>BOND
     1    15    16    1
     2    16     9    1
     3     9    10   ar
     4    10    11   ar
     5    11    12   ar
     6    12     1    1
     7     1    17    1
     8    17    18   ar
     9    18    19   ar
    10    19    20   ar
    11    20    21   ar
    12    21    23    1
    13    23    24   ar
    14    24    25   ar
    15    25    26   ar
    16    26    27   ar
    17    27    28   ar
    18    21    22   ar
    19     1     2    1
    20     2     3    2
    21     3     4    1
    22     3     5    1
    23     5     6    1
    24    12    13   ar
    25    13    14   ar
    26    14     9   ar
    27     6     1    1
    28    22    17   ar
    29    28    23   ar
    30     4     7    1
    31     4     8    1
@<TRIPOS>MOLECULE
*****
 28 31 0 0 0
SMALL
GASTEIGER

@<TRIPOS>ATOM
      1 C         141.0736  141.0390  167.9951 C.3     1  UNL1        0.2508
      2 N         140.8451  139.8645  168.8998 N.2     1  UNL1       -0.0586
      3 C         140.2883  140.3781  170.1945 C.2     1  UNL1        0.3016
      4 N         139.9130  139.5460  171.3847 N.pl3   1  UNL1       -0.2494
      5 C         140.1726  141.8700  170.0899 C.3     1  UNL1        0.1781
      6 S         140.6580  142.2784  168.7307 S.3     1  UNL1       -0.0729
      7 H         140.0261  138.5684  171.3572 H       1  UNL1        0.2881
      8 H         139.5536  139.9774  172.1934 H       1  UNL1        0.2881
      9 C         142.0629  143.9105  164.6746 C.ar    1  UNL1        0.1387
     10 C         143.1594  143.1518  165.3616 C.ar    1  UNL1        0.0368
     11 C         142.8296  142.1946  166.4684 C.ar    1  UNL1        0.0040
     12 C         141.4033  141.9961  166.8883 C.ar    1  UNL1        0.0357
     13 C         140.3068  142.7549  166.2013 C.ar    1  UNL1        0.0040
     14 C         140.6366  143.7120  165.0945 C.ar    1  UNL1        0.0368
     15 C         143.8117  145.0210  163.1068 C.3     1  UNL1        0.2525
     16 O         142.3926  144.8677  163.5678 O.3     1  UNL1       -0.4714
     17 C         141.5581  139.9996  167.0282 C.ar    1  UNL1        0.0355
     18 C         142.7810  139.1914  167.3462 C.ar    1  UNL1        0.0009
     19 C         143.2655  138.1521  166.3793 C.ar    1  UNL1       -0.0001
     20 C         142.5271  137.9210  165.0943 C.ar    1  UNL1        0.0000
     21 C         141.3042  138.7291  164.7762 C.ar    1  UNL1        0.0014
     22 C         140.8197  139.7685  165.7431 C.ar    1  UNL1        0.0010
     23 C         140.5659  138.4980  163.4911 C.ar    1  UNL1        0.0192
     24 C         139.0812  138.2844  163.5072 C.ar    1  UNL1        0.0031
     25 C         138.3428  138.0533  162.2222 C.ar    1  UNL1        0.0207
     26 C         139.0890  138.0357  160.9210 C.ar    1  UNL1        0.0989
     27 N         140.5737  138.2493  160.9050 N.ar    1  UNL1       -0.2423
     28 C         141.3121  138.4804  162.1901 C.ar    1  UNL1        0.0988
@<TRIPOS>BOND
     1    15    16    1
     2    16     9    1
     3     9    10   ar
     4    10    11   ar
     5    11    12   ar
     6    12     1    1
     7     1    17    1
     8    17    18   ar
     9    18    19   ar
    10    19    20   ar
    11    20    21   ar
    12    21    23    1
    13    23    24   ar
    14    24    25   ar
    15    25    26   ar
    16    26    27   ar
    17    27    28   ar
    18    21    22   ar
    19     1     2    1
    20     2     3    2
    21     3     4    1
    22     3     5    1
    23     5     6    1
    24    12    13   ar
    25    13    14   ar
    26    14     9   ar
    27     6     1    1
    28    22    17   ar
    29    28    23   ar
    30     4     7    1
    31     4     8    1
@<TRIPOS>MOLECULE
*****
 28 31 0 0 0
SMALL
GASTEIGER

@<TRIPOS>ATOM
      1 C         141.5644  140.8267  167.8462 C.3     1  UNL1        0.2508
      2 N         142.8224  140.6146  168.6352 N.2     1  UNL1       -0.0586
      3 C         142.4394  140.0789  169.9830 C.2     1  UNL1        0.3016
      4 N         143.3851  139.7245  171.0921 N.pl3   1  UNL1       -0.2494
      5 C         140.9448  139.9599  170.0269 C.3     1  UNL1        0.1781
      6 S         140.4040  140.4220  168.7063 S.3     1  UNL1       -0.0729
      7 H         144.3550  139.8381  170.9672 H       1  UNL1        0.2881
      8 H         143.0358  139.3782  171.9450 H       1  UNL1        0.2881
      9 C         138.3791  141.7573  164.8069 C.ar    1  UNL1        0.1387
     10 C         139.2655  142.8515  165.3234 C.ar    1  UNL1        0.0368
     11 C         140.3272  142.5413  166.3365 C.ar    1  UNL1        0.0040
     12 C         140.5026  141.1369  166.8331 C.ar    1  UNL1        0.0357
     13 C         139.6162  140.0426  166.3166 C.ar    1  UNL1        0.0040
     14 C         138.5545  140.3528  165.3035 C.ar    1  UNL1        0.0368
     15 C         137.7011  142.5896  162.4410 C.3     1  UNL1        0.2525
     16 O         137.3173  142.0675  163.7938 O.3     1  UNL1       -0.4714
     17 C         142.5028  141.2961  166.7743 C.ar    1  UNL1        0.0355
     18 C         143.3232  142.5341  166.9851 C.ar    1  UNL1        0.0009
     19 C         144.2616  143.0035  165.9133 C.ar    1  UNL1       -0.0001
     20 C         144.3796  142.2350  164.6305 C.ar    1  UNL1        0.0000
     21 C         143.5593  140.9971  164.4197 C.ar    1  UNL1        0.0014
     22 C         142.6209  140.5276  165.4916 C.ar    1  UNL1        0.0010
     23 C         143.6774  140.2286  163.1369 C.ar    1  UNL1        0.0192
     24 C         143.3488  138.7653  163.1063 C.ar    1  UNL1        0.0031
     25 C         143.4669  137.9968  161.8235 C.ar    1  UNL1        0.0207
     26 C         143.9135  138.6916  160.5713 C.ar    1  UNL1        0.0989
     27 N         144.2421  140.1549  160.6019 N.ar    1  UNL1       -0.2423
     28 C         144.1240  140.9234  161.8848 C.ar    1  UNL1        0.0988
@<TRIPOS>BOND
     1    15    16    1
     2    16     9    1
     3     9    10   ar
     4    10    11   ar
     5    11    12   ar
     6    12     1    1
     7     1    17    1
     8    17    18   ar
     9    18    19   ar
    10    19    20   ar
    11    20    21   ar
    12    21    23    1
    13    23    24   ar
    14    24    25   ar
    15    25    26   ar
    16    26    27   ar
    17    27    28   ar
    18    21    22   ar
    19     1     2    1
    20     2     3    2
    21     3     4    1
    22     3     5    1
    23     5     6    1
    24    12    13   ar
    25    13    14   ar
    26    14     9   ar
    27     6     1    1
    28    22    17   ar
    29    28    23   ar
    30     4     7    1
    31     4     8    1
@<TRIPOS>MOLECULE
*****
 28 31 0 0 0
SMALL
GASTEIGER

@<TRIPOS>ATOM
      1 C         141.3176  141.4420  168.2443 C.3     1  UNL1        0.2508
      2 N         140.1882  141.6552  169.2082 N.2     1  UNL1       -0.0586
      3 C         140.7454  142.3102  170.4374 C.2     1  UNL1        0.3016
      4 N         139.9657  142.7044  171.6567 N.pl3   1  UNL1       -0.2494
      5 C         142.2190  142.5018  170.2331 C.3     1  UNL1        0.1781
      6 S         142.5726  141.9652  168.8777 S.3     1  UNL1       -0.0729
      7 H         138.9965  142.5363  171.6969 H       1  UNL1        0.2881
      8 H         140.4232  143.1311  172.4169 H       1  UNL1        0.2881
      9 C         144.0373  140.4300  164.8050 C.ar    1  UNL1        0.1387
     10 C         143.4144  139.3331  165.6165 C.ar    1  UNL1        0.0368
     11 C         142.5078  139.6704  166.7629 C.ar    1  UNL1        0.0040
     12 C         142.2242  141.1047  167.0979 C.ar    1  UNL1        0.0357
     13 C         142.8471  142.2017  166.2864 C.ar    1  UNL1        0.0040
     14 C         143.7536  141.8643  165.1400 C.ar    1  UNL1        0.0368
     15 C         144.3989  140.0389  162.2621 C.3     1  UNL1        0.2525
     16 O         144.9439  140.0927  163.6586 O.3     1  UNL1       -0.4714
     17 C         140.2521  140.8483  167.3713 C.ar    1  UNL1        0.0355
     18 C         139.4310  139.6956  167.8686 C.ar    1  UNL1        0.0009
     19 C         138.3656  139.1019  166.9956 C.ar    1  UNL1       -0.0001
     20 C         138.1211  139.6609  165.6253 C.ar    1  UNL1        0.0000
     21 C         138.9420  140.8135  165.1279 C.ar    1  UNL1        0.0014
     22 C         140.0076  141.4072  166.0010 C.ar    1  UNL1        0.0010
     23 C         138.6975  141.3724  163.7576 C.ar    1  UNL1        0.0192
     24 C         138.1184  140.4996  162.6840 C.ar    1  UNL1        0.0031
     25 C         137.8739  141.0585  161.3136 C.ar    1  UNL1        0.0207
     26 C         138.2085  142.4904  161.0169 C.ar    1  UNL1        0.0989
     27 N         138.7877  143.3632  162.0906 N.ar    1  UNL1       -0.2423
     28 C         139.0322  142.8042  163.4610 C.ar    1  UNL1        0.0988
@<TRIPOS>BOND
     1    15    16    1
     2    16     9    1
     3     9    10   ar
     4    10    11   ar
     5    11    12   ar
     6    12     1    1
     7     1    17    1
     8    17    18   ar
     9    18    19   ar
    10    19    20   ar
    11    20    21   ar
    12    21    23    1
    13    23    24   ar
    14    24    25   ar
    15    25    26   ar
    16    26    27   ar
    17    27    28   ar
    18    21    22   ar
    19     1     2    1
    20     2     3    2
    21     3     4    1
    22     3     5    1
    23     5     6    1
    24    12    13   ar
    25    13    14   ar
    26    14     9   ar
    27     6     1    1
    28    22    17   ar
    29    28    23   ar
    30     4     7    1
    31     4     8    1
@<TRIPOS>MOLECULE
*****
 28 31 0 0 0
SMALL
GASTEIGER

@<TRIPOS>ATOM
      1 C         140.1874  142.9792  163.9579 C.3     1  UNL1        0.2508
      2 N         140.7788  144.3504  163.8170 N.2     1  UNL1       -0.0586
      3 C         140.0097  145.0802  162.7558 C.2     1  UNL1        0.3016
      4 N         140.2629  146.4837  162.2912 N.pl3   1  UNL1       -0.2494
      5 C         138.9429  144.1599  162.2410 C.3     1  UNL1        0.1781
      6 S         139.0527  142.8614  162.9839 S.3     1  UNL1       -0.0729
      7 H         140.9909  147.0113  162.6923 H       1  UNL1        0.2881
      8 H         139.7010  146.8774  161.5851 H       1  UNL1        0.2881
      9 C         139.0761  138.7547  165.0388 C.ar    1  UNL1        0.1387
     10 C         140.3376  139.0261  164.2741 C.ar    1  UNL1        0.0368
     11 C         140.7081  140.4342  163.9138 C.ar    1  UNL1        0.0040
     12 C         139.8169  141.5710  164.3182 C.ar    1  UNL1        0.0357
     13 C         138.5554  141.2996  165.0829 C.ar    1  UNL1        0.0040
     14 C         138.1850  139.8914  165.4432 C.ar    1  UNL1        0.0368
     15 C         137.7394  137.0877  166.5168 C.3     1  UNL1        0.2525
     16 O         138.7057  137.3465  165.3991 O.3     1  UNL1       -0.4714
     17 C         141.2446  142.8026  165.0072 C.ar    1  UNL1        0.0355
     18 C         142.6871  143.0294  164.6642 C.ar    1  UNL1        0.0009
     19 C         143.7442  142.8528  165.7135 C.ar    1  UNL1       -0.0001
     20 C         143.3590  142.4493  167.1059 C.ar    1  UNL1        0.0000
     21 C         141.9165  142.2224  167.4489 C.ar    1  UNL1        0.0014
     22 C         140.8593  142.3990  166.3996 C.ar    1  UNL1        0.0010
     23 C         141.5312  141.8189  168.8413 C.ar    1  UNL1        0.0192
     24 C         140.5315  140.7211  169.0545 C.ar    1  UNL1        0.0031
     25 C         140.1462  140.3176  170.4469 C.ar    1  UNL1        0.0207
     26 C         140.7606  141.0118  171.6261 C.ar    1  UNL1        0.0989
     27 N         141.7603  142.1096  171.4129 N.ar    1  UNL1       -0.2423
     28 C         142.1456  142.5132  170.0205 C.ar    1  UNL1        0.0988
@<TRIPOS>BOND
     1    15    16    1
     2    16     9    1
     3     9    10   ar
     4    10    11   ar
     5    11    12   ar
     6    12     1    1
     7     1    17    1
     8    17    18   ar
     9    18    19   ar
    10    19    20   ar
    11    20    21   ar
    12    21    23    1
    13    23    24   ar
    14    24    25   ar
    15    25    26   ar
    16    26    27   ar
    17    27    28   ar
    18    21    22   ar
    19     1     2    1
    20     2     3    2
    21     3     4    1
    22     3     5    1
    23     5     6    1
    24    12    13   ar
    25    13    14   ar
    26    14     9   ar
    27     6     1    1
    28    22    17   ar
    29    28    23   ar
    30     4     7    1
    31     4     8    1
@<TRIPOS>MOLECULE
*****
 28 31 0 0 0
SMALL
GASTEIGER

@<TRIPOS>ATOM
      1 C         141.8361  140.5887  168.1608 C.3     1  UNL1        0.2508
      2 N         142.9813  139.9487  168.8881 N.2     1  UNL1       -0.0586
      3 C         142.7638  140.1449  170.3593 C.2     1  UNL1        0.3016
      4 N         143.6672  139.6643  171.4560 N.pl3   1  UNL1       -0.2494
      5 C         141.4841  140.9061  170.5411 C.3     1  UNL1        0.1781
      6 S         140.9108  141.1804  169.1824 S.3     1  UNL1       -0.0729
      7 H         144.4897  139.1702  171.2352 H       1  UNL1        0.2881
      8 H         143.4378  139.8429  172.3965 H       1  UNL1        0.2881
      9 C         138.8504  142.2082  165.2091 C.ar    1  UNL1        0.1387
     10 C         139.7761  143.1434  165.9293 C.ar    1  UNL1        0.0368
     11 C         140.7713  142.6035  166.9132 C.ar    1  UNL1        0.0040
     12 C         140.8409  141.1285  167.1769 C.ar    1  UNL1        0.0357
     13 C         139.9153  140.1934  166.4567 C.ar    1  UNL1        0.0040
     14 C         138.9200  140.7333  165.4728 C.ar    1  UNL1        0.0368
     15 C         138.0229  144.1320  163.6715 C.3     1  UNL1        0.2525
     16 O         137.8552  142.7481  164.2252 O.3     1  UNL1       -0.4714
     17 C         142.5534  140.1098  166.9335 C.ar    1  UNL1        0.0355
     18 C         143.1428  138.7309  166.8993 C.ar    1  UNL1        0.0009
     19 C         143.8600  138.2521  165.6720 C.ar    1  UNL1       -0.0001
     20 C         143.9879  139.1522  164.4790 C.ar    1  UNL1        0.0000
     21 C         143.3986  140.5311  164.5131 C.ar    1  UNL1        0.0014
     22 C         142.6813  141.0099  165.7404 C.ar    1  UNL1        0.0010
     23 C         143.5264  141.4311  163.3200 C.ar    1  UNL1        0.0192
     24 C         142.4106  142.3685  162.9646 C.ar    1  UNL1        0.0031
     25 C         142.5385  143.2686  161.7716 C.ar    1  UNL1        0.0207
     26 C         143.7823  143.2313  160.9338 C.ar    1  UNL1        0.0989
     27 N         144.8981  142.2940  161.2892 N.ar    1  UNL1       -0.2423
     28 C         144.7702  141.3939  162.4823 C.ar    1  UNL1        0.0988
@<TRIPOS>BOND
     1    15    16    1
     2    16     9    1
     3     9    10   ar
     4    10    11   ar
     5    11    12   ar
     6    12     1    1
     7     1    17    1
     8    17    18   ar
     9    18    19   ar
    10    19    20   ar
    11    20    21   ar
    12    21    23    1
    13    23    24   ar
    14    24    25   ar
    15    25    26   ar
    16    26    27   ar
    17    27    28   ar
    18    21    22   ar
    19     1     2    1
    20     2     3    2
    21     3     4    1
    22     3     5    1
    23     5     6    1
    24    12    13   ar
    25    13    14   ar
    26    14     9   ar
    27     6     1    1
    28    22    17   ar
    29    28    23   ar
    30     4     7    1
    31     4     8    1
