@<TRIPOS>MOLECULE
*****
 32 36 0 0 0
SMALL
GASTEIGER

@<TRIPOS>ATOM
      1 C         142.0892  142.0289  167.2925 C.3     1  UNL1        0.0437
      2 C         141.3007  142.8277  166.2974 C.3     1  UNL1        0.1352
      3 C         140.3114  142.7645  167.4232 C.3     1  UNL1        0.0437
      4 O         140.1687  143.6046  165.6934 O.3     1  UNL1       -0.4828
      5 C         140.2997  144.1673  164.3090 C.ar    1  UNL1        0.1361
      6 C         139.1677  144.9441  163.7049 C.ar    1  UNL1        0.0379
      7 C         139.2987  145.5068  162.3206 C.ar    1  UNL1        0.0178
      8 C         140.5618  145.2926  161.5405 C.ar    1  UNL1        0.0505
      9 C         141.6939  144.5158  162.1446 C.ar    1  UNL1        0.0153
     10 C         141.5628  143.9531  163.5289 C.ar    1  UNL1        0.0367
     11 C         142.6949  143.1762  164.1330 C.3     1  UNL1        0.1535
     12 C         142.9698  143.6760  162.7456 C.3     1  UNL1        0.2349
     13 O         144.3496  143.2333  162.3585 O.2     1  UNL1       -0.4478
     14 C         144.9276  142.4600  163.5065 C.2     1  UNL1        0.2770
     15 N         146.2892  141.8322  163.5500 N.pl3   1  UNL1       -0.3133
     16 N         143.9049  142.4247  164.6032 N.2     1  UNL1       -0.2204
     17 C         142.5638  142.6136  165.5173 C.3     1  UNL1        0.0597
     18 C         143.9467  142.0414  165.4157 C.3     1  UNL1        0.0058
     19 C         143.1418  141.8402  166.6653 C.3     1  UNL1        0.0058
     20 H         146.8922  141.9102  162.7757 H       1  UNL1        0.1466
     21 H         146.5798  141.3420  164.3529 H       1  UNL1        0.1466
     22 N         140.6929  145.8553  160.1562 N.am    1  UNL1       -0.2791
     23 C         140.1245  145.1084  158.9861 C.2     1  UNL1        0.2672
     24 O         139.4250  143.7989  159.2002 O.2     1  UNL1       -0.2682
     25 H         141.1520  146.7148  160.0156 H       1  UNL1        0.1552
     26 C         140.2556  145.6711  157.6019 C.ar    1  UNL1        0.1349
     27 C         141.2206  145.0576  156.6312 C.ar    1  UNL1        0.0261
     28 C         141.3517  145.6203  155.2468 C.ar    1  UNL1        0.0329
     29 C         140.5177  146.7965  154.8333 C.ar    1  UNL1        0.1592
     30 F         140.6488  147.3591  153.4490 F       1  UNL1       -0.2025
     31 C         139.5526  147.4100  155.8040 C.ar    1  UNL1        0.1285
     32 N         139.4215  146.8473  157.1882 N.ar    1  UNL1       -0.2369
@<TRIPOS>BOND
     1     1     2    1
     2     2     3    1
     3     2     4    1
     4     4     5    1
     5     5     6   ar
     6     6     7   ar
     7     7     8   ar
     8     8    22    1
     9    22    23   am
    10    23    24    2
    11    23    26    1
    12    26    27   ar
    13    27    28   ar
    14    28    29   ar
    15    29    30    1
    16    29    31   ar
    17    31    32   ar
    18     8     9   ar
    19     9    10   ar
    20    10    11    1
    21    11    12    1
    22    12    13    1
    23    13    14    1
    24    14    15    1
    25    14    16    2
    26    11    17    1
    27    17    18    1
    28    18    19    1
    29    17     2    1
    30    10     5   ar
    31    16    11    1
    32    19    17    1
    33    32    26   ar
    34    22    25    1
    35    15    20    1
    36    15    21    1
@<TRIPOS>MOLECULE
*****
 32 36 0 0 0
SMALL
GASTEIGER

@<TRIPOS>ATOM
      1 C         139.9986  141.5418  169.9620 C.3     1  UNL1        0.0437
      2 C         140.5640  141.8004  168.5969 C.3     1  UNL1        0.1352
      3 C         141.3126  142.8315  169.3884 C.3     1  UNL1        0.0437
      4 O         141.3893  142.4170  167.5067 O.3     1  UNL1       -0.4828
      5 C         141.2697  141.9128  166.0990 C.ar    1  UNL1        0.1361
      6 C         142.0950  142.5295  165.0088 C.ar    1  UNL1        0.0379
      7 C         141.9755  142.0253  163.6011 C.ar    1  UNL1        0.0178
      8 C         141.0306  140.9044  163.2837 C.ar    1  UNL1        0.0505
      9 C         140.2053  140.2877  164.3739 C.ar    1  UNL1        0.0153
     10 C         140.3249  140.7919  165.7816 C.ar    1  UNL1        0.0367
     11 C         139.4995  140.1752  166.8718 C.3     1  UNL1        0.1535
     12 C         139.2738  139.5689  165.5185 C.3     1  UNL1        0.2349
     13 O         138.2493  138.4828  165.6623 O.2     1  UNL1       -0.4478
     14 C         137.8418  138.4179  167.1044 C.2     1  UNL1        0.2770
     15 N         136.8379  137.4728  167.6952 N.pl3   1  UNL1       -0.3133
     16 N         138.6145  139.4638  167.8519 N.2     1  UNL1       -0.2204
     17 C         139.6191  140.6794  168.2794 C.3     1  UNL1        0.0597
     18 C         138.5971  139.6763  168.7256 C.3     1  UNL1        0.0058
     19 C         139.2117  140.6145  169.7216 C.3     1  UNL1        0.0058
     20 H         136.3802  136.8181  167.1198 H       1  UNL1        0.1466
     21 H         136.6367  137.5073  168.6583 H       1  UNL1        0.1466
     22 N         140.9110  140.4001  161.8761 N.am    1  UNL1       -0.2791
     23 C         141.6432  139.1591  161.4592 C.2     1  UNL1        0.2672
     24 O         142.4949  138.4222  162.4500 O.2     1  UNL1       -0.2682
     25 H         140.3520  140.8837  161.2258 H       1  UNL1        0.1552
     26 C         141.5236  138.6548  160.0516 C.ar    1  UNL1        0.1349
     27 C         140.2104  138.7436  159.3321 C.ar    1  UNL1        0.0261
     28 C         140.0909  138.2393  157.9245 C.ar    1  UNL1        0.0329
     29 C         141.2845  137.6463  157.2363 C.ar    1  UNL1        0.1592
     30 F         141.1649  137.1421  155.8287 F       1  UNL1       -0.2025
     31 C         142.5977  137.5576  157.9558 C.ar    1  UNL1        0.1285
     32 N         142.7173  138.0618  159.3634 N.ar    1  UNL1       -0.2369
@<TRIPOS>BOND
     1     1     2    1
     2     2     3    1
     3     2     4    1
     4     4     5    1
     5     5     6   ar
     6     6     7   ar
     7     7     8   ar
     8     8    22    1
     9    22    23   am
    10    23    24    2
    11    23    26    1
    12    26    27   ar
    13    27    28   ar
    14    28    29   ar
    15    29    30    1
    16    29    31   ar
    17    31    32   ar
    18     8     9   ar
    19     9    10   ar
    20    10    11    1
    21    11    12    1
    22    12    13    1
    23    13    14    1
    24    14    15    1
    25    14    16    2
    26    11    17    1
    27    17    18    1
    28    18    19    1
    29    17     2    1
    30    10     5   ar
    31    16    11    1
    32    19    17    1
    33    32    26   ar
    34    22    25    1
    35    15    20    1
    36    15    21    1
@<TRIPOS>MOLECULE
*****
 32 36 0 0 0
SMALL
GASTEIGER

@<TRIPOS>ATOM
      1 C         142.4143  141.0987  170.2440 C.3     1  UNL1        0.0437
      2 C         142.8776  141.7579  168.9788 C.3     1  UNL1        0.1352
      3 C         143.9303  142.2480  169.9283 C.3     1  UNL1        0.0437
      4 O         143.7064  142.5872  168.0433 O.3     1  UNL1       -0.4828
      5 C         143.3217  142.6976  166.5976 C.ar    1  UNL1        0.1361
      6 C         144.1505  143.5270  165.6622 C.ar    1  UNL1        0.0379
      7 C         143.7657  143.6373  164.2165 C.ar    1  UNL1        0.0178
      8 C         142.5522  142.9183  163.7064 C.ar    1  UNL1        0.0505
      9 C         141.7233  142.0889  164.6420 C.ar    1  UNL1        0.0153
     10 C         142.1081  141.9786  166.0875 C.ar    1  UNL1        0.0367
     11 C         141.2792  141.1491  167.0231 C.3     1  UNL1        0.1535
     12 C         140.7733  141.1654  165.6110 C.3     1  UNL1        0.2349
     13 O         139.5400  140.3140  165.5508 O.2     1  UNL1       -0.4478
     14 C         139.2836  139.7714  166.9255 C.2     1  UNL1        0.2770
     15 N         138.1511  138.8708  167.3208 N.pl3   1  UNL1       -0.3133
     16 N         140.3585  140.2876  167.8354 N.2     1  UNL1       -0.2204
     17 C         141.6640  141.0388  168.4687 C.3     1  UNL1        0.0597
     18 C         140.4849  140.1449  168.7143 C.3     1  UNL1        0.0058
     19 C         141.4076  140.4963  169.8434 C.3     1  UNL1        0.0058
     20 H         137.4919  138.5845  166.6479 H       1  UNL1        0.1466
     21 H         138.0669  138.5659  168.2531 H       1  UNL1        0.1466
     22 N         142.1674  143.0286  162.2608 N.am    1  UNL1       -0.2791
     23 C         141.4864  144.2671  161.7583 C.2     1  UNL1        0.2672
     24 O         141.1902  145.3952  162.7015 O.2     1  UNL1       -0.2682
     25 H         142.3618  142.2882  161.6418 H       1  UNL1        0.1552
     26 C         141.1017  144.3774  160.3128 C.ar    1  UNL1        0.1349
     27 C         140.0272  143.4930  159.7530 C.ar    1  UNL1        0.0261
     28 C         139.6425  143.6034  158.3074 C.ar    1  UNL1        0.0329
     29 C         140.3322  144.5981  157.4215 C.ar    1  UNL1        0.1592
     30 F         139.9474  144.7084  155.9760 F       1  UNL1       -0.2025
     31 C         141.4067  145.4825  157.9813 C.ar    1  UNL1        0.1285
     32 N         141.7914  145.3722  159.4268 N.ar    1  UNL1       -0.2369
@<TRIPOS>BOND
     1     1     2    1
     2     2     3    1
     3     2     4    1
     4     4     5    1
     5     5     6   ar
     6     6     7   ar
     7     7     8   ar
     8     8    22    1
     9    22    23   am
    10    23    24    2
    11    23    26    1
    12    26    27   ar
    13    27    28   ar
    14    28    29   ar
    15    29    30    1
    16    29    31   ar
    17    31    32   ar
    18     8     9   ar
    19     9    10   ar
    20    10    11    1
    21    11    12    1
    22    12    13    1
    23    13    14    1
    24    14    15    1
    25    14    16    2
    26    11    17    1
    27    17    18    1
    28    18    19    1
    29    17     2    1
    30    10     5   ar
    31    16    11    1
    32    19    17    1
    33    32    26   ar
    34    22    25    1
    35    15    20    1
    36    15    21    1
@<TRIPOS>MOLECULE
*****
 32 36 0 0 0
SMALL
GASTEIGER

@<TRIPOS>ATOM
      1 C         139.7637  140.0804  166.9192 C.3     1  UNL1        0.0437
      2 C         139.9383  141.3575  166.1522 C.3     1  UNL1        0.1352
      3 C         140.3501  141.8166  167.5197 C.3     1  UNL1        0.0437
      4 O         140.2559  142.7941  165.8601 O.3     1  UNL1       -0.4828
      5 C         140.1012  143.3282  164.4669 C.ar    1  UNL1        0.1361
      6 C         140.4188  144.7647  164.1748 C.ar    1  UNL1        0.0379
      7 C         140.2640  145.2988  162.7816 C.ar    1  UNL1        0.0178
      8 C         139.7916  144.3962  161.6806 C.ar    1  UNL1        0.0505
      9 C         139.4740  142.9595  161.9728 C.ar    1  UNL1        0.0153
     10 C         139.6288  142.4256  163.3659 C.ar    1  UNL1        0.0367
     11 C         139.3112  140.9889  163.6581 C.3     1  UNL1        0.1535
     12 C         139.1096  141.3789  162.2237 C.3     1  UNL1        0.2349
     13 O         138.6313  140.1689  161.4774 O.2     1  UNL1       -0.4478
     14 C         138.5373  139.0312  162.4504 C.2     1  UNL1        0.2770
     15 N         138.0999  137.6323  162.1314 N.pl3   1  UNL1       -0.3133
     16 N         138.9575  139.5380  163.7981 N.2     1  UNL1       -0.2204
     17 C         139.4660  140.4550  165.0512 C.3     1  UNL1        0.0597
     18 C         139.0099  139.1045  164.5843 C.3     1  UNL1        0.0058
     19 C         139.3720  139.3172  166.0242 C.3     1  UNL1        0.0058
     20 H         137.8418  137.3949  161.2115 H       1  UNL1        0.1466
     21 H         138.0709  136.9515  162.8421 H       1  UNL1        0.1466
     22 N         139.6369  144.9302  160.2875 N.am    1  UNL1       -0.2791
     23 C         140.8436  145.1106  159.4150 C.2     1  UNL1        0.2672
     24 O         142.2052  144.7572  159.9357 O.2     1  UNL1       -0.2682
     25 H         138.7432  145.1622  159.9457 H       1  UNL1        0.1552
     26 C         140.6889  145.6446  158.0219 C.ar    1  UNL1        0.1349
     27 C         141.6295  145.2025  156.9404 C.ar    1  UNL1        0.0261
     28 C         141.4747  145.7365  155.5472 C.ar    1  UNL1        0.0329
     29 C         140.3793  146.7126  155.2356 C.ar    1  UNL1        0.1592
     30 F         140.2245  147.2466  153.8424 F       1  UNL1       -0.2025
     31 C         139.4386  147.1548  156.3171 C.ar    1  UNL1        0.1285
     32 N         139.5934  146.6208  157.7102 N.ar    1  UNL1       -0.2369
@<TRIPOS>BOND
     1     1     2    1
     2     2     3    1
     3     2     4    1
     4     4     5    1
     5     5     6   ar
     6     6     7   ar
     7     7     8   ar
     8     8    22    1
     9    22    23   am
    10    23    24    2
    11    23    26    1
    12    26    27   ar
    13    27    28   ar
    14    28    29   ar
    15    29    30    1
    16    29    31   ar
    17    31    32   ar
    18     8     9   ar
    19     9    10   ar
    20    10    11    1
    21    11    12    1
    22    12    13    1
    23    13    14    1
    24    14    15    1
    25    14    16    2
    26    11    17    1
    27    17    18    1
    28    18    19    1
    29    17     2    1
    30    10     5   ar
    31    16    11    1
    32    19    17    1
    33    32    26   ar
    34    22    25    1
    35    15    20    1
    36    15    21    1
@<TRIPOS>MOLECULE
*****
 32 36 0 0 0
SMALL
GASTEIGER

@<TRIPOS>ATOM
      1 C         141.1985  140.7814  170.4234 C.3     1  UNL1        0.0437
      2 C         140.7970  141.6094  169.2388 C.3     1  UNL1        0.1352
      3 C         140.0517  142.3287  170.3239 C.3     1  UNL1        0.0437
      4 O         140.1367  142.6871  168.4310 O.3     1  UNL1       -0.4828
      5 C         140.3610  142.7580  166.9496 C.ar    1  UNL1        0.1361
      6 C         139.7008  143.8357  166.1418 C.ar    1  UNL1        0.0379
      7 C         139.9251  143.9067  164.6603 C.ar    1  UNL1        0.0178
      8 C         140.8097  142.8999  163.9867 C.ar    1  UNL1        0.0505
      9 C         141.4700  141.8221  164.7945 C.ar    1  UNL1        0.0153
     10 C         141.2457  141.7512  166.2759 C.ar    1  UNL1        0.0367
     11 C         141.9060  140.6735  167.0838 C.3     1  UNL1        0.1535
     12 C         142.2223  140.6182  165.6185 C.3     1  UNL1        0.2349
     13 O         143.1414  139.4558  165.3863 O.2     1  UNL1       -0.4478
     14 C         143.3931  138.7926  166.7080 C.2     1  UNL1        0.2770
     15 N         144.2567  137.5883  166.9398 N.pl3   1  UNL1       -0.3133
     16 N         142.6296  139.5452  167.7571 N.2     1  UNL1       -0.2204
     17 C         141.6816  140.6025  168.5652 C.3     1  UNL1        0.0597
     18 C         142.5735  139.3991  168.6426 C.3     1  UNL1        0.0058
     19 C         141.9333  139.9394  169.8869 C.3     1  UNL1        0.0058
     20 H         144.7199  137.1617  166.1830 H       1  UNL1        0.1466
     21 H         144.3603  137.2244  167.8487 H       1  UNL1        0.1466
     22 N         141.0341  142.9708  162.5053 N.am    1  UNL1       -0.2791
     23 C         142.0330  143.9385  161.9435 C.2     1  UNL1        0.2672
     24 O         142.8076  144.8354  162.8630 O.2     1  UNL1       -0.2682
     25 H         140.5257  142.3822  161.9017 H       1  UNL1        0.1552
     26 C         142.2573  144.0094  160.4621 C.ar    1  UNL1        0.1349
     27 C         143.1473  143.0066  159.7894 C.ar    1  UNL1        0.0261
     28 C         143.3716  143.0776  158.3079 C.ar    1  UNL1        0.0329
     29 C         142.7060  144.1513  157.4992 C.ar    1  UNL1        0.1592
     30 F         142.9304  144.2222  156.0178 F       1  UNL1       -0.2025
     31 C         141.8161  145.1541  158.1718 C.ar    1  UNL1        0.1285
     32 N         141.5917  145.0832  159.6532 N.ar    1  UNL1       -0.2369
@<TRIPOS>BOND
     1     1     2    1
     2     2     3    1
     3     2     4    1
     4     4     5    1
     5     5     6   ar
     6     6     7   ar
     7     7     8   ar
     8     8    22    1
     9    22    23   am
    10    23    24    2
    11    23    26    1
    12    26    27   ar
    13    27    28   ar
    14    28    29   ar
    15    29    30    1
    16    29    31   ar
    17    31    32   ar
    18     8     9   ar
    19     9    10   ar
    20    10    11    1
    21    11    12    1
    22    12    13    1
    23    13    14    1
    24    14    15    1
    25    14    16    2
    26    11    17    1
    27    17    18    1
    28    18    19    1
    29    17     2    1
    30    10     5   ar
    31    16    11    1
    32    19    17    1
    33    32    26   ar
    34    22    25    1
    35    15    20    1
    36    15    21    1
@<TRIPOS>MOLECULE
*****
 32 36 0 0 0
SMALL
GASTEIGER

@<TRIPOS>ATOM
      1 C         143.0381  139.8826  166.4620 C.3     1  UNL1        0.0437
      2 C         142.6278  141.1657  165.8022 C.3     1  UNL1        0.1352
      3 C         142.3109  141.4946  167.2310 C.3     1  UNL1        0.0437
      4 O         142.1074  142.5630  165.6387 O.3     1  UNL1       -0.4828
      5 C         142.0463  143.1858  164.2754 C.ar    1  UNL1        0.1361
      6 C         141.5259  144.5831  164.1118 C.ar    1  UNL1        0.0379
      7 C         141.4649  145.2060  162.7486 C.ar    1  UNL1        0.0178
      8 C         141.9242  144.4315  161.5489 C.ar    1  UNL1        0.0505
      9 C         142.4447  143.0341  161.7125 C.ar    1  UNL1        0.0153
     10 C         142.5057  142.4114  163.0757 C.ar    1  UNL1        0.0367
     11 C         143.0261  141.0140  163.2393 C.3     1  UNL1        0.1535
     12 C         143.0245  141.5024  161.8210 C.3     1  UNL1        0.2349
     13 O         143.5651  140.4054  160.9526 O.2     1  UNL1       -0.4478
     14 C         143.9008  139.2391  161.8341 C.2     1  UNL1        0.2770
     15 N         144.4698  137.9270  161.3815 N.pl3   1  UNL1       -0.3133
     16 N         143.5677  139.6152  163.2473 N.2     1  UNL1       -0.2204
     17 C         143.0871  140.3912  164.6025 C.3     1  UNL1        0.0597
     18 C         143.6528  139.1374  164.0044 C.3     1  UNL1        0.0058
     19 C         143.4228  139.2249  165.4840 C.3     1  UNL1        0.0058
     20 H         144.6556  137.7741  160.4269 H       1  UNL1        0.1466
     21 H         144.6574  137.2188  162.0392 H       1  UNL1        0.1466
     22 N         141.8632  145.0543  160.1857 N.am    1  UNL1       -0.2791
     23 C         140.6269  144.9081  159.3490 C.2     1  UNL1        0.2672
     24 O         139.4515  144.1392  159.8756 O.2     1  UNL1       -0.2682
     25 H         142.6346  145.5590  159.8401 H       1  UNL1        0.1552
     26 C         140.5658  145.5309  157.9858 C.ar    1  UNL1        0.1349
     27 C         141.5491  145.1217  156.9296 C.ar    1  UNL1        0.0261
     28 C         141.4881  145.7445  155.5663 C.ar    1  UNL1        0.0329
     29 C         140.4437  146.7765  155.2594 C.ar    1  UNL1        0.1592
     30 F         140.3827  147.3993  153.8962 F       1  UNL1       -0.2025
     31 C         139.4604  147.1858  156.3156 C.ar    1  UNL1        0.1285
     32 N         139.5215  146.5630  157.6788 N.ar    1  UNL1       -0.2369
@<TRIPOS>BOND
     1     1     2    1
     2     2     3    1
     3     2     4    1
     4     4     5    1
     5     5     6   ar
     6     6     7   ar
     7     7     8   ar
     8     8    22    1
     9    22    23   am
    10    23    24    2
    11    23    26    1
    12    26    27   ar
    13    27    28   ar
    14    28    29   ar
    15    29    30    1
    16    29    31   ar
    17    31    32   ar
    18     8     9   ar
    19     9    10   ar
    20    10    11    1
    21    11    12    1
    22    12    13    1
    23    13    14    1
    24    14    15    1
    25    14    16    2
    26    11    17    1
    27    17    18    1
    28    18    19    1
    29    17     2    1
    30    10     5   ar
    31    16    11    1
    32    19    17    1
    33    32    26   ar
    34    22    25    1
    35    15    20    1
    36    15    21    1
@<TRIPOS>MOLECULE
*****
 32 36 0 0 0
SMALL
GASTEIGER

@<TRIPOS>ATOM
      1 C         143.9201  143.9758  164.7053 C.3     1  UNL1        0.0437
      2 C         143.8650  143.7039  163.2312 C.3     1  UNL1        0.1352
      3 C         143.7970  145.2023  163.2223 C.3     1  UNL1        0.0437
      4 O         143.7863  143.9523  161.7540 O.3     1  UNL1       -0.4828
      5 C         143.7947  142.7968  160.7976 C.ar    1  UNL1        0.1361
      6 C         143.7160  143.0453  159.3204 C.ar    1  UNL1        0.0379
      7 C         143.7244  141.8897  158.3640 C.ar    1  UNL1        0.0178
      8 C         143.8116  140.4857  158.8848 C.ar    1  UNL1        0.0505
      9 C         143.8903  140.2373  160.3620 C.ar    1  UNL1        0.0153
     10 C         143.8819  141.3928  161.3184 C.ar    1  UNL1        0.0367
     11 C         143.9606  141.1444  162.7956 C.3     1  UNL1        0.1535
     12 C         143.9790  139.8954  161.9650 C.3     1  UNL1        0.2349
     13 O         144.0744  138.7221  162.8945 O.2     1  UNL1       -0.4478
     14 C         144.1150  139.2458  164.2995 C.2     1  UNL1        0.2770
     15 N         144.2094  138.4176  165.5466 N.pl3   1  UNL1       -0.3133
     16 N         144.0447  140.7428  164.2384 N.2     1  UNL1       -0.2204
     17 C         143.9522  142.2999  163.7519 C.3     1  UNL1        0.0597
     18 C         144.0479  141.3459  164.9055 C.3     1  UNL1        0.0058
     19 C         143.9928  142.8236  165.1570 C.3     1  UNL1        0.0058
     20 H         144.2508  137.4360  165.4838 H       1  UNL1        0.1466
     21 H         144.2299  138.8557  166.4281 H       1  UNL1        0.1466
     22 N         143.8200  139.3302  157.9284 N.am    1  UNL1       -0.2791
     23 C         142.6076  138.4568  157.7966 C.2     1  UNL1        0.2672
     24 O         141.3868  138.7390  158.6212 O.2     1  UNL1       -0.2682
     25 H         144.6213  139.1450  157.3872 H       1  UNL1        0.1552
     26 C         142.6160  137.3013  156.8403 C.ar    1  UNL1        0.1349
     27 C         141.3226  136.6802  156.4030 C.ar    1  UNL1        0.0261
     28 C         141.3311  135.5246  155.4466 C.ar    1  UNL1        0.0329
     29 C         142.6329  134.9902  154.9275 C.ar    1  UNL1        0.1592
     30 F         142.6413  133.8347  153.9712 F       1  UNL1       -0.2025
     31 C         143.9264  135.6113  155.3648 C.ar    1  UNL1        0.1285
     32 N         143.9180  136.7668  156.3212 N.ar    1  UNL1       -0.2369
@<TRIPOS>BOND
     1     1     2    1
     2     2     3    1
     3     2     4    1
     4     4     5    1
     5     5     6   ar
     6     6     7   ar
     7     7     8   ar
     8     8    22    1
     9    22    23   am
    10    23    24    2
    11    23    26    1
    12    26    27   ar
    13    27    28   ar
    14    28    29   ar
    15    29    30    1
    16    29    31   ar
    17    31    32   ar
    18     8     9   ar
    19     9    10   ar
    20    10    11    1
    21    11    12    1
    22    12    13    1
    23    13    14    1
    24    14    15    1
    25    14    16    2
    26    11    17    1
    27    17    18    1
    28    18    19    1
    29    17     2    1
    30    10     5   ar
    31    16    11    1
    32    19    17    1
    33    32    26   ar
    34    22    25    1
    35    15    20    1
    36    15    21    1
@<TRIPOS>MOLECULE
*****
 32 36 0 0 0
SMALL
GASTEIGER

@<TRIPOS>ATOM
      1 C         140.0912  141.5482  169.9244 C.3     1  UNL1        0.0437
      2 C         139.6519  140.6113  168.8385 C.3     1  UNL1        0.1352
      3 C         138.6285  140.2920  169.8877 C.3     1  UNL1        0.0437
      4 O         138.8573  139.5635  168.1170 O.3     1  UNL1       -0.4828
      5 C         139.2385  139.1603  166.7234 C.ar    1  UNL1        0.1361
      6 C         138.4439  138.1125  166.0019 C.ar    1  UNL1        0.0379
      7 C         138.8251  137.7093  164.6082 C.ar    1  UNL1        0.0178
      8 C         140.0010  138.3540  163.9362 C.ar    1  UNL1        0.0505
      9 C         140.7957  139.4019  164.6577 C.ar    1  UNL1        0.0153
     10 C         140.4144  139.8050  166.0513 C.ar    1  UNL1        0.0367
     11 C         141.2091  140.8528  166.7729 C.3     1  UNL1        0.1535
     12 C         141.7072  140.5540  165.3899 C.3     1  UNL1        0.2349
     13 O         142.8992  141.4260  165.1282 O.2     1  UNL1       -0.4478
     14 C         143.1379  142.2637  166.3493 C.2     1  UNL1        0.2770
     15 N         144.2296  143.2776  166.5233 N.pl3   1  UNL1       -0.3133
     16 N         142.0934  141.9095  167.3658 N.2     1  UNL1       -0.2204
     17 C         140.8278  141.2560  168.1665 C.3     1  UNL1        0.0597
     18 C         141.9655  142.2331  168.1951 C.3     1  UNL1        0.0058
     19 C         141.0665  142.0937  169.3877 C.3     1  UNL1        0.0058
     20 H         144.8709  143.4405  165.7943 H       1  UNL1        0.1466
     21 H         144.3047  143.7802  167.3665 H       1  UNL1        0.1466
     22 N         140.3823  137.9509  162.5426 N.am    1  UNL1       -0.2791
     23 C         140.3076  138.9497  161.4259 C.2     1  UNL1        0.2672
     24 O         139.8516  140.3515  161.7029 O.2     1  UNL1       -0.2682
     25 H         140.6816  137.0308  162.3608 H       1  UNL1        0.1552
     26 C         140.6888  138.5465  160.0324 C.ar    1  UNL1        0.1349
     27 C         142.1228  138.2567  159.7013 C.ar    1  UNL1        0.0261
     28 C         142.5041  137.8535  158.3076 C.ar    1  UNL1        0.0329
     29 C         141.4513  137.7403  157.2451 C.ar    1  UNL1        0.1592
     30 F         141.8326  137.3372  155.8516 F       1  UNL1       -0.2025
     31 C         140.0173  138.0302  157.5762 C.ar    1  UNL1        0.1285
     32 N         139.6361  138.4333  158.9698 N.ar    1  UNL1       -0.2369
@<TRIPOS>BOND
     1     1     2    1
     2     2     3    1
     3     2     4    1
     4     4     5    1
     5     5     6   ar
     6     6     7   ar
     7     7     8   ar
     8     8    22    1
     9    22    23   am
    10    23    24    2
    11    23    26    1
    12    26    27   ar
    13    27    28   ar
    14    28    29   ar
    15    29    30    1
    16    29    31   ar
    17    31    32   ar
    18     8     9   ar
    19     9    10   ar
    20    10    11    1
    21    11    12    1
    22    12    13    1
    23    13    14    1
    24    14    15    1
    25    14    16    2
    26    11    17    1
    27    17    18    1
    28    18    19    1
    29    17     2    1
    30    10     5   ar
    31    16    11    1
    32    19    17    1
    33    32    26   ar
    34    22    25    1
    35    15    20    1
    36    15    21    1
@<TRIPOS>MOLECULE
*****
 32 36 0 0 0
SMALL
GASTEIGER

@<TRIPOS>ATOM
      1 C         137.7698  142.8759  164.3472 C.3     1  UNL1        0.0437
      2 C         137.9664  142.6590  162.8761 C.3     1  UNL1        0.1352
      3 C         137.6529  144.1259  162.8834 C.3     1  UNL1        0.0437
      4 O         138.0541  142.9515  161.4075 O.3     1  UNL1       -0.4828
      5 C         138.3870  141.8524  160.4424 C.ar    1  UNL1        0.1361
      6 C         138.4747  142.1448  158.9739 C.ar    1  UNL1        0.0379
      7 C         138.8076  141.0458  158.0088 C.ar    1  UNL1        0.0178
      8 C         139.0528  139.6543  158.5124 C.ar    1  UNL1        0.0505
      9 C         138.9651  139.3618  159.9811 C.ar    1  UNL1        0.0153
     10 C         138.6322  140.4609  160.9460 C.ar    1  UNL1        0.0367
     11 C         138.5445  140.1684  162.4147 C.3     1  UNL1        0.1535
     12 C         138.8851  138.9737  161.5739 C.3     1  UNL1        0.2349
     13 O         139.0432  137.7944  162.4871 O.2     1  UNL1       -0.4478
     14 C         138.8004  138.2600  163.8921 C.2     1  UNL1        0.2770
     15 N         138.8561  137.4079  165.1253 N.pl3   1  UNL1       -0.3133
     16 N         138.4922  139.7273  163.8474 N.2     1  UNL1       -0.2204
     17 C         138.2116  141.2675  163.3797 C.3     1  UNL1        0.0597
     18 C         138.3025  140.2953  164.5183 C.3     1  UNL1        0.0058
     19 C         137.9688  141.7332  164.7847 C.3     1  UNL1        0.0058
     20 H         139.0679  136.4493  165.0521 H       1  UNL1        0.1466
     21 H         138.6807  137.8073  166.0080 H       1  UNL1        0.1466
     22 N         139.3857  138.5552  157.5474 N.am    1  UNL1       -0.2791
     23 C         140.8059  138.0982  157.3921 C.2     1  UNL1        0.2672
     24 O         141.8932  138.7402  158.2017 O.2     1  UNL1       -0.2682
     25 H         138.6721  138.1338  157.0160 H       1  UNL1        0.1552
     26 C         141.1388  136.9991  156.4271 C.ar    1  UNL1        0.1349
     27 C         140.3817  136.8782  155.1378 C.ar    1  UNL1        0.0261
     28 C         140.7147  135.7791  154.1728 C.ar    1  UNL1        0.0329
     29 C         141.8047  134.8010  154.4971 C.ar    1  UNL1        0.1592
     30 F         142.1376  133.7019  153.5321 F       1  UNL1       -0.2025
     31 C         142.5618  134.9219  155.7864 C.ar    1  UNL1        0.1285
     32 N         142.2289  136.0210  156.7513 N.ar    1  UNL1       -0.2369
@<TRIPOS>BOND
     1     1     2    1
     2     2     3    1
     3     2     4    1
     4     4     5    1
     5     5     6   ar
     6     6     7   ar
     7     7     8   ar
     8     8    22    1
     9    22    23   am
    10    23    24    2
    11    23    26    1
    12    26    27   ar
    13    27    28   ar
    14    28    29   ar
    15    29    30    1
    16    29    31   ar
    17    31    32   ar
    18     8     9   ar
    19     9    10   ar
    20    10    11    1
    21    11    12    1
    22    12    13    1
    23    13    14    1
    24    14    15    1
    25    14    16    2
    26    11    17    1
    27    17    18    1
    28    18    19    1
    29    17     2    1
    30    10     5   ar
    31    16    11    1
    32    19    17    1
    33    32    26   ar
    34    22    25    1
    35    15    20    1
    36    15    21    1
