@<TRIPOS>MOLECULE
*****
 38 42 0 0 0
SMALL
GASTEIGER

@<TRIPOS>ATOM
      1 C         142.6954  138.8033  160.9771 C.ar    1  UNL1        0.0576
      2 C         142.5301  140.2301  160.5446 C.ar    1  UNL1        0.0239
      3 C         142.3157  140.5547  159.0960 C.ar    1  UNL1        0.0874
      4 N         142.2667  139.4524  158.0798 N.ar    1  UNL1       -0.2305
      5 C         142.4320  138.0256  158.5123 C.ar    1  UNL1        0.1319
      6 C         142.6463  137.7011  159.9610 C.ar    1  UNL1        0.0388
      7 C         142.1504  141.9814  158.6635 C.ar    1  UNL1        0.0743
      8 C         142.6465  142.5764  157.3790 C.ar    1  UNL1        0.1251
      9 N         142.2627  144.0264  157.3612 N.ar    1  UNL1       -0.1620
     10 N         141.5295  144.3275  158.6346 N.ar    1  UNL1       -0.2106
     11 C         140.9160  145.5892  159.1653 C.ar    1  UNL1        0.1036
     12 C         140.2331  145.5871  160.5009 C.ar    1  UNL1        0.0404
     13 C         140.1637  144.3233  161.3058 C.ar    1  UNL1        0.0905
     14 N         140.7772  143.0615  160.7751 N.ar    1  UNL1       -0.2259
     15 C         141.4601  143.0636  159.4395 C.ar    1  UNL1        0.1667
     16 C         139.4808  144.3212  162.6413 C.ar    1  UNL1        0.0472
     17 C         140.0202  144.9159  163.9083 C.ar    1  UNL1        0.0085
     18 C         139.0115  144.6863  164.9944 C.ar    1  UNL1        0.0075
     19 C         137.8486  143.9496  164.3986 C.ar    1  UNL1        0.0355
     20 S         138.1386  143.7240  162.9444 S.2     1  UNL1       -0.0849
     21 N         141.7616  138.0036  163.2659 N.am    1  UNL1       -0.2995
     22 C         142.9098  138.4788  162.4258 C.2     1  UNL1        0.2460
     23 O         144.2724  138.6295  163.0345 O.2     1  UNL1       -0.2701
     24 H         140.8672  137.9047  162.8664 H       1  UNL1        0.1498
     25 C         141.9759  137.6791  164.7146 C.3     1  UNL1        0.1056
     26 C         141.9920  138.7784  165.7351 C.3     1  UNL1        0.0772
     27 C         143.1380  138.8930  166.6960 C.3     1  UNL1        0.0191
     28 N         140.8620  139.7631  165.7945 N.3     1  UNL1       -0.2724
     29 C         141.6019  141.5131  164.0226 C.3     1  UNL1        0.0188
     30 C         141.0897  141.1909  165.3951 C.3     1  UNL1        0.0721
     31 C         139.5044  139.3200  166.2533 C.3     1  UNL1        0.0721
     32 C         138.5171  138.7795  165.2618 C.3     1  UNL1        0.0188
     33 N         142.3829  136.9235  157.4960 N.pl3   1  UNL1       -0.2881
     34 C         141.5005  136.5963  156.3279 C.3     1  UNL1        0.1234
     35 C         142.3133  135.3648  156.0587 C.3     1  UNL1        0.1547
     36 C         143.1957  135.6919  157.2269 C.3     1  UNL1        0.1234
     37 O         142.2642  134.2626  155.0425 O.3     1  UNL1       -0.3501
     38 C         141.3476  133.0932  155.2482 C.3     1  UNL1        0.1741
@<TRIPOS>BOND
     1    29    30    1
     2    30    28    1
     3    28    31    1
     4    31    32    1
     5    28    26    1
     6    26    27    1
     7    26    25    1
     8    25    21    1
     9    21    22   am
    10    22    23    2
    11    22     1    1
    12     1     2   ar
    13     2     3   ar
    14     3     7    1
    15     7     8   ar
    16     8     9   ar
    17     9    10   ar
    18    10    11   ar
    19    11    12   ar
    20    12    13   ar
    21    13    16    1
    22    16    17   ar
    23    17    18   ar
    24    18    19   ar
    25    19    20   ar
    26    13    14   ar
    27    14    15   ar
    28     3     4   ar
    29     4     5   ar
    30     5    33    1
    31    33    34    1
    32    34    35    1
    33    35    37    1
    34    37    38    1
    35    35    36    1
    36     5     6   ar
    37     6     1   ar
    38    15     7   ar
    39    36    33    1
    40    15    10   ar
    41    20    16   ar
    42    21    24    1
@<TRIPOS>MOLECULE
*****
 38 42 0 0 0
SMALL
GASTEIGER

@<TRIPOS>ATOM
      1 C         140.5514  144.5594  160.3884 C.ar    1  UNL1        0.0576
      2 C         141.2432  143.2431  160.1919 C.ar    1  UNL1        0.0239
      3 C         141.6542  142.8098  158.8159 C.ar    1  UNL1        0.0874
      4 N         141.3734  143.6931  157.6364 N.ar    1  UNL1       -0.2305
      5 C         140.6816  145.0094  157.8330 C.ar    1  UNL1        0.1319
      6 C         140.2706  145.4426  159.2090 C.ar    1  UNL1        0.0388
      7 C         142.3460  141.4935  158.6194 C.ar    1  UNL1        0.0743
      8 C         143.3175  141.1628  157.5254 C.ar    1  UNL1        0.1251
      9 N         143.7597  139.7416  157.7122 N.ar    1  UNL1       -0.1620
     10 N         143.0613  139.1941  158.9215 N.ar    1  UNL1       -0.2106
     11 C         143.1082  137.8494  159.5847 C.ar    1  UNL1        0.1036
     12 C         142.2813  137.5875  160.8085 C.ar    1  UNL1        0.0404
     13 C         141.4076  138.6702  161.3692 C.ar    1  UNL1        0.0905
     14 N         141.3607  140.0148  160.7060 N.ar    1  UNL1       -0.2259
     15 C         142.1876  140.2768  159.4822 C.ar    1  UNL1        0.1667
     16 C         140.5807  138.4082  162.5930 C.ar    1  UNL1        0.0472
     17 C         139.1949  138.9228  162.8475 C.ar    1  UNL1        0.0085
     18 C         138.7522  138.4184  164.1889 C.ar    1  UNL1        0.0075
     19 C         139.8644  137.5920  164.7635 C.ar    1  UNL1        0.0355
     20 S         140.9944  137.5857  163.7771 S.2     1  UNL1       -0.0849
     21 N         140.8123  144.4022  162.9686 N.am    1  UNL1       -0.2995
     22 C         140.1404  144.9926  161.7644 C.2     1  UNL1        0.2460
     23 O         139.0576  146.0163  161.9363 O.2     1  UNL1       -0.2701
     24 H         141.5230  143.7304  162.8558 H       1  UNL1        0.1498
     25 C         140.4013  144.8354  164.3446 C.3     1  UNL1        0.1056
     26 C         139.2220  144.1924  165.0124 C.3     1  UNL1        0.0772
     27 C         138.2465  145.0320  165.7829 C.3     1  UNL1        0.0191
     28 N         139.0182  142.7099  164.9098 N.3     1  UNL1       -0.2724
     29 C         137.7424  142.4008  162.6678 C.3     1  UNL1        0.0188
     30 C         137.8484  142.1648  164.1454 C.3     1  UNL1        0.0721
     31 C         139.9843  141.7724  165.5715 C.3     1  UNL1        0.0721
     32 C         141.2081  141.3139  164.8352 C.3     1  UNL1        0.0188
     33 N         140.4008  145.8925  156.6535 N.pl3   1  UNL1       -0.2881
     34 C         139.4181  146.9865  156.3576 C.3     1  UNL1        0.1234
     35 C         140.0037  147.1415  154.9854 C.3     1  UNL1        0.1547
     36 C         140.9864  146.0476  155.2812 C.3     1  UNL1        0.1234
     37 O         139.7229  148.0246  153.8059 O.3     1  UNL1       -0.3501
     38 C         139.8438  149.5139  153.9385 C.3     1  UNL1        0.1741
@<TRIPOS>BOND
     1    29    30    1
     2    30    28    1
     3    28    31    1
     4    31    32    1
     5    28    26    1
     6    26    27    1
     7    26    25    1
     8    25    21    1
     9    21    22   am
    10    22    23    2
    11    22     1    1
    12     1     2   ar
    13     2     3   ar
    14     3     7    1
    15     7     8   ar
    16     8     9   ar
    17     9    10   ar
    18    10    11   ar
    19    11    12   ar
    20    12    13   ar
    21    13    16    1
    22    16    17   ar
    23    17    18   ar
    24    18    19   ar
    25    19    20   ar
    26    13    14   ar
    27    14    15   ar
    28     3     4   ar
    29     4     5   ar
    30     5    33    1
    31    33    34    1
    32    34    35    1
    33    35    37    1
    34    37    38    1
    35    35    36    1
    36     5     6   ar
    37     6     1   ar
    38    15     7   ar
    39    36    33    1
    40    15    10   ar
    41    20    16   ar
    42    21    24    1
@<TRIPOS>MOLECULE
*****
 38 42 0 0 0
SMALL
GASTEIGER

@<TRIPOS>ATOM
      1 C         140.2760  144.7912  160.0572 C.ar    1  UNL1        0.0576
      2 C         140.6144  143.3561  159.7820 C.ar    1  UNL1        0.0239
      3 C         140.7671  142.8793  158.3680 C.ar    1  UNL1        0.0874
      4 N         140.5815  143.8379  157.2292 N.ar    1  UNL1       -0.2305
      5 C         140.2430  145.2730  157.5044 C.ar    1  UNL1        0.1319
      6 C         140.0903  145.7497  158.9184 C.ar    1  UNL1        0.0388
      7 C         141.1056  141.4442  158.0928 C.ar    1  UNL1        0.0743
      8 C         140.6721  140.6499  156.8964 C.ar    1  UNL1        0.1251
      9 N         141.2355  139.2662  157.0298 N.ar    1  UNL1       -0.1620
     10 N         142.0172  139.2052  158.3086 N.ar    1  UNL1       -0.2106
     11 C         142.7917  138.0979  158.9597 C.ar    1  UNL1        0.1036
     12 C         143.4860  138.3367  160.2678 C.ar    1  UNL1        0.0404
     13 C         143.4057  139.6828  160.9247 C.ar    1  UNL1        0.0905
     14 N         142.6312  140.7901  160.2736 N.ar    1  UNL1       -0.2259
     15 C         141.9369  140.5513  158.9656 C.ar    1  UNL1        0.1667
     16 C         144.1000  139.9216  162.2328 C.ar    1  UNL1        0.0472
     17 C         144.1397  138.9749  163.3956 C.ar    1  UNL1        0.0085
     18 C         144.9406  139.6171  164.4892 C.ar    1  UNL1        0.0075
     19 C         145.3959  140.9609  164.0022 C.ar    1  UNL1        0.0355
     20 S         144.8764  141.1490  162.6077 S.2     1  UNL1       -0.0849
     21 N         140.3972  144.3330  162.6117 N.am    1  UNL1       -0.2995
     22 C         140.1232  145.2679  161.4712 C.2     1  UNL1        0.2460
     23 O         139.6964  146.6797  161.7448 O.2     1  UNL1       -0.2701
     24 H         140.6773  143.4064  162.4321 H       1  UNL1        0.1498
     25 C         140.2445  144.8096  164.0257 C.3     1  UNL1        0.1056
     26 C         139.1599  144.2449  164.8946 C.3     1  UNL1        0.0772
     27 C         138.4219  145.1371  165.8481 C.3     1  UNL1        0.0191
     28 N         138.8134  142.7879  164.8098 N.3     1  UNL1       -0.2724
     29 C         140.5679  142.1927  166.6311 C.3     1  UNL1        0.0188
     30 C         139.6693  141.7718  165.5062 C.3     1  UNL1        0.0721
     31 C         137.6111  142.3470  164.0288 C.3     1  UNL1        0.0721
     32 C         137.7332  142.0630  162.5610 C.3     1  UNL1        0.0188
     33 N         140.0573  146.2314  156.3656 N.pl3   1  UNL1       -0.2881
     34 C         140.7538  146.4743  155.0595 C.3     1  UNL1        0.1234
     35 C         139.7949  147.5868  154.7550 C.3     1  UNL1        0.1547
     36 C         139.0984  147.3439  156.0611 C.3     1  UNL1        0.1234
     37 O         139.6092  148.5452  153.6161 O.3     1  UNL1       -0.3501
     38 C         140.2746  149.8891  153.6509 C.3     1  UNL1        0.1741
@<TRIPOS>BOND
     1    29    30    1
     2    30    28    1
     3    28    31    1
     4    31    32    1
     5    28    26    1
     6    26    27    1
     7    26    25    1
     8    25    21    1
     9    21    22   am
    10    22    23    2
    11    22     1    1
    12     1     2   ar
    13     2     3   ar
    14     3     7    1
    15     7     8   ar
    16     8     9   ar
    17     9    10   ar
    18    10    11   ar
    19    11    12   ar
    20    12    13   ar
    21    13    16    1
    22    16    17   ar
    23    17    18   ar
    24    18    19   ar
    25    19    20   ar
    26    13    14   ar
    27    14    15   ar
    28     3     4   ar
    29     4     5   ar
    30     5    33    1
    31    33    34    1
    32    34    35    1
    33    35    37    1
    34    37    38    1
    35    35    36    1
    36     5     6   ar
    37     6     1   ar
    38    15     7   ar
    39    36    33    1
    40    15    10   ar
    41    20    16   ar
    42    21    24    1
@<TRIPOS>MOLECULE
*****
 38 42 0 0 0
SMALL
GASTEIGER

@<TRIPOS>ATOM
      1 C         140.7674  137.9175  157.1030 C.ar    1  UNL1        0.0576
      2 C         140.0321  138.6716  156.0350 C.ar    1  UNL1        0.0239
      3 C         138.9410  139.6302  156.4097 C.ar    1  UNL1        0.0874
      4 N         138.5852  139.8348  157.8525 N.ar    1  UNL1       -0.2305
      5 C         139.3205  139.0807  158.9205 C.ar    1  UNL1        0.1319
      6 C         140.4116  138.1221  158.5458 C.ar    1  UNL1        0.0388
      7 C         138.2056  140.3843  155.3417 C.ar    1  UNL1        0.0743
      8 C         138.8303  141.1314  154.2008 C.ar    1  UNL1        0.1251
      9 N         137.7273  141.7325  153.3810 N.ar    1  UNL1       -0.1620
     10 N         136.4209  141.3569  154.0153 N.ar    1  UNL1       -0.2106
     11 C         135.0004  141.6660  153.6460 C.ar    1  UNL1        0.1036
     12 C         133.8754  141.1418  154.4885 C.ar    1  UNL1        0.0404
     13 C         134.1710  140.3086  155.7002 C.ar    1  UNL1        0.0905
     14 N         135.5916  139.9995  156.0695 N.ar    1  UNL1       -0.2259
     15 C         136.7165  140.5237  155.2270 C.ar    1  UNL1        0.1667
     16 C         133.0460  139.7845  156.5427 C.ar    1  UNL1        0.0472
     17 C         133.1434  138.6855  157.5589 C.ar    1  UNL1        0.0085
     18 C         131.7838  138.4891  158.1611 C.ar    1  UNL1        0.0075
     19 C         130.8460  139.4667  157.5171 C.ar    1  UNL1        0.0355
     20 S         131.6261  140.2673  156.5169 S.2     1  UNL1       -0.0849
     21 N         141.5178  135.6541  156.0715 N.am    1  UNL1       -0.2995
     22 C         141.8586  136.9589  156.7283 C.2     1  UNL1        0.2460
     23 O         143.2906  137.3050  157.0103 O.2     1  UNL1       -0.2701
     24 H         140.5779  135.4269  155.8863 H       1  UNL1        0.1498
     25 C         142.6089  134.6955  155.6967 C.3     1  UNL1        0.1056
     26 C         142.3956  133.2187  155.8511 C.3     1  UNL1        0.0772
     27 C         141.1762  132.5717  155.2644 C.3     1  UNL1        0.0191
     28 N         143.4018  132.3890  156.5922 N.3     1  UNL1       -0.2724
     29 C         145.5030  132.3584  158.1198 C.3     1  UNL1        0.0188
     30 C         144.2199  133.0046  157.6884 C.3     1  UNL1        0.0721
     31 C         143.5898  130.9439  156.2371 C.3     1  UNL1        0.0721
     32 C         144.3439  130.5685  154.9960 C.3     1  UNL1        0.0188
     33 N         138.9646  139.2853  160.3632 N.pl3   1  UNL1       -0.2881
     34 C         139.6463  139.9070  161.5459 C.3     1  UNL1        0.1234
     35 C         138.4615  139.5747  162.4036 C.3     1  UNL1        0.1547
     36 C         137.7798  138.9530  161.2209 C.3     1  UNL1        0.1234
     37 O         138.1056  139.7793  163.8463 O.3     1  UNL1       -0.3501
     38 C         138.6032  138.8182  164.8850 C.3     1  UNL1        0.1741
@<TRIPOS>BOND
     1    29    30    1
     2    30    28    1
     3    28    31    1
     4    31    32    1
     5    28    26    1
     6    26    27    1
     7    26    25    1
     8    25    21    1
     9    21    22   am
    10    22    23    2
    11    22     1    1
    12     1     2   ar
    13     2     3   ar
    14     3     7    1
    15     7     8   ar
    16     8     9   ar
    17     9    10   ar
    18    10    11   ar
    19    11    12   ar
    20    12    13   ar
    21    13    16    1
    22    16    17   ar
    23    17    18   ar
    24    18    19   ar
    25    19    20   ar
    26    13    14   ar
    27    14    15   ar
    28     3     4   ar
    29     4     5   ar
    30     5    33    1
    31    33    34    1
    32    34    35    1
    33    35    37    1
    34    37    38    1
    35    35    36    1
    36     5     6   ar
    37     6     1   ar
    38    15     7   ar
    39    36    33    1
    40    15    10   ar
    41    20    16   ar
    42    21    24    1
@<TRIPOS>MOLECULE
*****
 38 42 0 0 0
SMALL
GASTEIGER

@<TRIPOS>ATOM
      1 C         138.0055  141.5124  157.2472 C.ar    1  UNL1        0.0576
      2 C         138.2774  142.5550  158.2908 C.ar    1  UNL1        0.0239
      3 C         139.6219  142.6213  158.9523 C.ar    1  UNL1        0.0874
      4 N         140.6947  141.6449  158.5702 N.ar    1  UNL1       -0.2305
      5 C         140.4228  140.6022  157.5267 C.ar    1  UNL1        0.1319
      6 C         139.0782  140.5360  156.8652 C.ar    1  UNL1        0.0388
      7 C         139.8939  143.6639  159.9959 C.ar    1  UNL1        0.0743
      8 C         140.2691  145.0931  159.7375 C.ar    1  UNL1        0.1251
      9 N         140.4454  145.7728  161.0629 N.ar    1  UNL1       -0.1620
     10 N         140.1792  144.7638  162.1404 N.ar    1  UNL1       -0.2106
     11 C         140.2031  144.8635  163.6369 C.ar    1  UNL1        0.1036
     12 C         139.8862  143.6597  164.4739 C.ar    1  UNL1        0.0404
     13 C         139.5453  142.3563  163.8144 C.ar    1  UNL1        0.0905
     14 N         139.5213  142.2567  162.3180 N.ar    1  UNL1       -0.2259
     15 C         139.8383  143.4604  161.4810 C.ar    1  UNL1        0.1667
     16 C         139.2283  141.1526  164.6515 C.ar    1  UNL1        0.0472
     17 C         138.4012  139.9758  164.2260 C.ar    1  UNL1        0.0085
     18 C         138.3445  139.0102  165.3724 C.ar    1  UNL1        0.0075
     19 C         139.1366  139.5902  166.5065 C.ar    1  UNL1        0.0355
     20 S         139.6828  140.9143  166.0609 S.2     1  UNL1       -0.0849
     21 N         135.7234  140.3192  156.9035 N.am    1  UNL1       -0.2995
     22 C         136.6609  141.4461  156.5857 C.2     1  UNL1        0.2460
     23 O         136.2537  142.5069  155.6064 O.2     1  UNL1       -0.2701
     24 H         135.9906  139.6230  157.5462 H       1  UNL1        0.1498
     25 C         134.3787  140.2529  156.2420 C.3     1  UNL1        0.1056
     26 C         133.1810  139.7969  157.0215 C.3     1  UNL1        0.0772
     27 C         133.3618  138.9580  158.2518 C.3     1  UNL1        0.0191
     28 N         131.8025  140.1797  156.5707 N.3     1  UNL1       -0.2724
     29 C         130.2565  141.6183  155.0574 C.3     1  UNL1        0.0188
     30 C         131.6152  141.3261  155.6217 C.3     1  UNL1        0.0721
     31 C         130.6114  139.4162  157.0689 C.3     1  UNL1        0.0721
     32 C         130.2534  138.0975  156.4501 C.3     1  UNL1        0.0188
     33 N         141.4955  139.6259  157.1447 N.pl3   1  UNL1       -0.2881
     34 C         142.2383  138.5341  157.8562 C.3     1  UNL1        0.1234
     35 C         143.0127  138.2451  156.6045 C.3     1  UNL1        0.1547
     36 C         142.2699  139.3369  155.8930 C.3     1  UNL1        0.1234
     37 O         144.0854  137.2688  156.2225 O.3     1  UNL1       -0.3501
     38 C         143.7237  135.8551  155.8751 C.3     1  UNL1        0.1741
@<TRIPOS>BOND
     1    29    30    1
     2    30    28    1
     3    28    31    1
     4    31    32    1
     5    28    26    1
     6    26    27    1
     7    26    25    1
     8    25    21    1
     9    21    22   am
    10    22    23    2
    11    22     1    1
    12     1     2   ar
    13     2     3   ar
    14     3     7    1
    15     7     8   ar
    16     8     9   ar
    17     9    10   ar
    18    10    11   ar
    19    11    12   ar
    20    12    13   ar
    21    13    16    1
    22    16    17   ar
    23    17    18   ar
    24    18    19   ar
    25    19    20   ar
    26    13    14   ar
    27    14    15   ar
    28     3     4   ar
    29     4     5   ar
    30     5    33    1
    31    33    34    1
    32    34    35    1
    33    35    37    1
    34    37    38    1
    35    35    36    1
    36     5     6   ar
    37     6     1   ar
    38    15     7   ar
    39    36    33    1
    40    15    10   ar
    41    20    16   ar
    42    21    24    1
@<TRIPOS>MOLECULE
*****
 38 42 0 0 0
SMALL
GASTEIGER

@<TRIPOS>ATOM
      1 C         137.3008  141.7720  156.2695 C.ar    1  UNL1        0.0576
      2 C         138.2955  141.0989  157.1681 C.ar    1  UNL1        0.0239
      3 C         139.4806  141.8625  157.6802 C.ar    1  UNL1        0.0874
      4 N         139.6710  143.2994  157.2937 N.ar    1  UNL1       -0.2305
      5 C         138.6762  143.9725  156.3952 C.ar    1  UNL1        0.1319
      6 C         137.4911  143.2088  155.8831 C.ar    1  UNL1        0.0388
      7 C         140.4754  141.1895  158.5787 C.ar    1  UNL1        0.0743
      8 C         141.5085  140.1874  158.1561 C.ar    1  UNL1        0.1251
      9 N         142.2833  139.7789  159.3738 N.ar    1  UNL1       -0.1620
     10 N         141.7291  140.5285  160.5489 N.ar    1  UNL1       -0.2106
     11 C         142.0975  140.5299  162.0030 C.ar    1  UNL1        0.1036
     12 C         141.3486  141.4031  162.9656 C.ar    1  UNL1        0.0404
     13 C         140.2313  142.2749  162.4742 C.ar    1  UNL1        0.0905
     14 N         139.8628  142.2735  161.0202 N.ar    1  UNL1       -0.2259
     15 C         140.6117  141.4003  160.0576 C.ar    1  UNL1        0.1667
     16 C         139.4824  143.1481  163.4369 C.ar    1  UNL1        0.0472
     17 C         138.0148  143.0725  163.7376 C.ar    1  UNL1        0.0085
     18 C         137.6949  144.1279  164.7544 C.ar    1  UNL1        0.0075
     19 C         138.9649  144.8557  165.0821 C.ar    1  UNL1        0.0355
     20 S         140.0696  144.2502  164.2679 S.2     1  UNL1       -0.0849
     21 N         134.8126  141.7136  155.5242 N.am    1  UNL1       -0.2995
     22 C         136.1157  141.0083  155.7574 C.2     1  UNL1        0.2460
     23 O         136.2336  139.5392  155.4786 O.2     1  UNL1       -0.2701
     24 H         134.7351  142.6779  155.7072 H       1  UNL1        0.1498
     25 C         133.6275  140.9499  155.0121 C.3     1  UNL1        0.1056
     26 C         132.3400  140.9585  155.7818 C.3     1  UNL1        0.0772
     27 C         131.2482  141.9162  155.4066 C.3     1  UNL1        0.0191
     28 N         132.1443  140.0093  156.9267 N.3     1  UNL1       -0.2724
     29 C         130.0505  138.5084  156.5912 C.3     1  UNL1        0.0188
     30 C         130.7597  139.6014  157.3344 C.3     1  UNL1        0.0721
     31 C         133.3333  139.4682  157.6639 C.3     1  UNL1        0.0721
     32 C         133.1745  138.2947  158.5846 C.3     1  UNL1        0.0188
     33 N         138.8666  145.4093  156.0088 N.pl3   1  UNL1       -0.2881
     34 C         139.7522  146.5254  156.4779 C.3     1  UNL1        0.1234
     35 C         139.1360  147.4413  155.4624 C.3     1  UNL1        0.1547
     36 C         138.2503  146.3253  154.9933 C.3     1  UNL1        0.1234
     37 O         139.3264  148.8781  155.0760 O.3     1  UNL1       -0.3501
     38 C         138.5203  149.9490  155.7495 C.3     1  UNL1        0.1741
@<TRIPOS>BOND
     1    29    30    1
     2    30    28    1
     3    28    31    1
     4    31    32    1
     5    28    26    1
     6    26    27    1
     7    26    25    1
     8    25    21    1
     9    21    22   am
    10    22    23    2
    11    22     1    1
    12     1     2   ar
    13     2     3   ar
    14     3     7    1
    15     7     8   ar
    16     8     9   ar
    17     9    10   ar
    18    10    11   ar
    19    11    12   ar
    20    12    13   ar
    21    13    16    1
    22    16    17   ar
    23    17    18   ar
    24    18    19   ar
    25    19    20   ar
    26    13    14   ar
    27    14    15   ar
    28     3     4   ar
    29     4     5   ar
    30     5    33    1
    31    33    34    1
    32    34    35    1
    33    35    37    1
    34    37    38    1
    35    35    36    1
    36     5     6   ar
    37     6     1   ar
    38    15     7   ar
    39    36    33    1
    40    15    10   ar
    41    20    16   ar
    42    21    24    1
@<TRIPOS>MOLECULE
*****
 38 42 0 0 0
SMALL
GASTEIGER

@<TRIPOS>ATOM
      1 C         138.8605  139.8065  159.3547 C.ar    1  UNL1        0.0576
      2 C         138.1438  140.4834  158.2242 C.ar    1  UNL1        0.0239
      3 C         138.4986  140.1512  156.8052 C.ar    1  UNL1        0.0874
      4 N         139.5701  139.1418  156.5167 N.ar    1  UNL1       -0.2305
      5 C         140.2868  138.4648  157.6472 C.ar    1  UNL1        0.1319
      6 C         139.9320  138.7972  159.0662 C.ar    1  UNL1        0.0388
      7 C         137.7819  140.8281  155.6747 C.ar    1  UNL1        0.0743
      8 C         138.4239  141.5996  154.5599 C.ar    1  UNL1        0.1251
      9 N         137.3362  142.1007  153.6566 N.ar    1  UNL1       -0.1620
     10 N         136.0220  141.6390  154.2132 N.ar    1  UNL1       -0.2106
     11 C         134.6101  141.8332  153.7455 C.ar    1  UNL1        0.1036
     12 C         133.4737  141.2408  154.5250 C.ar    1  UNL1        0.0404
     13 C         133.7491  140.4543  155.7722 C.ar    1  UNL1        0.0905
     14 N         135.1610  140.2601  156.2399 N.ar    1  UNL1       -0.2259
     15 C         136.2975  140.8525  155.4604 C.ar    1  UNL1        0.1667
     16 C         132.6126  139.8619  156.5517 C.ar    1  UNL1        0.0472
     17 C         132.7149  138.7480  157.5510 C.ar    1  UNL1        0.0085
     18 C         131.3399  138.4771  158.0856 C.ar    1  UNL1        0.0075
     19 C         130.3877  139.4236  157.4166 C.ar    1  UNL1        0.0355
     20 S         131.1743  140.2794  156.4686 S.2     1  UNL1       -0.0849
     21 N         138.6260  139.0924  161.8417 N.am    1  UNL1       -0.2995
     22 C         138.5057  140.1388  160.7737 C.2     1  UNL1        0.2460
     23 O         138.0306  141.5176  161.1249 O.2     1  UNL1       -0.2701
     24 H         138.9377  138.1875  161.6113 H       1  UNL1        0.1498
     25 C         138.2712  139.4248  163.2607 C.3     1  UNL1        0.1056
     26 C         139.3520  139.5603  164.2921 C.3     1  UNL1        0.0772
     27 C         139.0002  139.5716  165.7502 C.3     1  UNL1        0.0191
     28 N         140.7846  139.6845  163.8652 N.3     1  UNL1       -0.2724
     29 C         142.2657  141.7492  164.4062 C.3     1  UNL1        0.0188
     30 C         141.3381  141.0235  163.4773 C.3     1  UNL1        0.0721
     31 C         141.6636  138.4696  163.8264 C.3     1  UNL1        0.0721
     32 C         141.0771  137.1113  164.0732 C.3     1  UNL1        0.0188
     33 N         141.3582  137.4556  157.3586 N.pl3   1  UNL1       -0.2881
     34 C         142.7028  137.1394  157.9436 C.3     1  UNL1        0.1234
     35 C         142.8736  136.0282  156.9506 C.3     1  UNL1        0.1547
     36 C         141.5290  136.3444  156.3656 C.3     1  UNL1        0.1234
     37 O         143.9450  135.0189  156.6620 O.3     1  UNL1       -0.3501
     38 C         143.9533  133.7059  157.3871 C.3     1  UNL1        0.1741
@<TRIPOS>BOND
     1    29    30    1
     2    30    28    1
     3    28    31    1
     4    31    32    1
     5    28    26    1
     6    26    27    1
     7    26    25    1
     8    25    21    1
     9    21    22   am
    10    22    23    2
    11    22     1    1
    12     1     2   ar
    13     2     3   ar
    14     3     7    1
    15     7     8   ar
    16     8     9   ar
    17     9    10   ar
    18    10    11   ar
    19    11    12   ar
    20    12    13   ar
    21    13    16    1
    22    16    17   ar
    23    17    18   ar
    24    18    19   ar
    25    19    20   ar
    26    13    14   ar
    27    14    15   ar
    28     3     4   ar
    29     4     5   ar
    30     5    33    1
    31    33    34    1
    32    34    35    1
    33    35    37    1
    34    37    38    1
    35    35    36    1
    36     5     6   ar
    37     6     1   ar
    38    15     7   ar
    39    36    33    1
    40    15    10   ar
    41    20    16   ar
    42    21    24    1
@<TRIPOS>MOLECULE
*****
 38 42 0 0 0
SMALL
GASTEIGER

@<TRIPOS>ATOM
      1 C         142.3968  138.5726  160.1993 C.ar    1  UNL1        0.0576
      2 C         142.3254  140.0265  159.8370 C.ar    1  UNL1        0.0239
      3 C         142.3474  140.4423  158.3960 C.ar    1  UNL1        0.0874
      4 N         142.4408  139.4042  157.3172 N.ar    1  UNL1       -0.2305
      5 C         142.5122  137.9504  157.6795 C.ar    1  UNL1        0.1319
      6 C         142.4902  137.5346  159.1205 C.ar    1  UNL1        0.0388
      7 C         142.2760  141.8962  158.0338 C.ar    1  UNL1        0.0743
      8 C         142.8959  142.5354  156.8267 C.ar    1  UNL1        0.1251
      9 N         142.5752  144.0003  156.8618 N.ar    1  UNL1       -0.1620
     10 N         141.7571  144.2664  158.0906 N.ar    1  UNL1       -0.2106
     11 C         141.1567  145.5248  158.6436 C.ar    1  UNL1        0.1036
     12 C         140.3713  145.4828  159.9209 C.ar    1  UNL1        0.0404
     13 C         140.1864  144.1823  160.6452 C.ar    1  UNL1        0.0905
     14 N         140.7868  142.9239  160.0922 N.ar    1  UNL1       -0.2259
     15 C         141.5722  142.9659  158.8149 C.ar    1  UNL1        0.1667
     16 C         139.4010  144.1403  161.9225 C.ar    1  UNL1        0.0472
     17 C         138.2393  143.2372  162.2139 C.ar    1  UNL1        0.0085
     18 C         137.7597  143.5327  163.6041 C.ar    1  UNL1        0.0075
     19 C         138.6251  144.6185  164.1719 C.ar    1  UNL1        0.0355
     20 S         139.6394  144.9940  163.1326 S.2     1  UNL1       -0.0849
     21 N         141.0988  137.6710  162.2614 N.am    1  UNL1       -0.2995
     22 C         142.3748  138.1568  161.6403 C.2     1  UNL1        0.2460
     23 O         143.6288  138.2268  162.4604 O.2     1  UNL1       -0.2701
     24 H         140.2757  137.6251  161.7232 H       1  UNL1        0.1498
     25 C         141.0767  137.2552  163.7024 C.3     1  UNL1        0.1056
     26 C         140.3150  138.0690  164.7063 C.3     1  UNL1        0.0772
     27 C         139.0471  137.5313  165.3008 C.3     1  UNL1        0.0191
     28 N         140.8213  139.4203  165.1156 N.3     1  UNL1       -0.2724
     29 C         142.8269  138.9869  166.7091 C.3     1  UNL1        0.0188
     30 C         142.2690  139.6056  165.4617 C.3     1  UNL1        0.0721
     31 C         139.8798  140.5864  165.1789 C.3     1  UNL1        0.0721
     32 C         140.1224  141.6937  166.1612 C.3     1  UNL1        0.0188
     33 N         142.6057  136.9124  156.6007 N.pl3   1  UNL1       -0.2881
     34 C         141.6242  136.2434  155.6846 C.3     1  UNL1        0.1234
     35 C         142.7377  135.4445  155.0749 C.3     1  UNL1        0.1547
     36 C         143.7192  136.1135  155.9910 C.3     1  UNL1        0.1234
     37 O         142.8311  134.4065  153.9961 O.3     1  UNL1       -0.3501
     38 C         142.7523  132.9504  154.3476 C.3     1  UNL1        0.1741
@<TRIPOS>BOND
     1    29    30    1
     2    30    28    1
     3    28    31    1
     4    31    32    1
     5    28    26    1
     6    26    27    1
     7    26    25    1
     8    25    21    1
     9    21    22   am
    10    22    23    2
    11    22     1    1
    12     1     2   ar
    13     2     3   ar
    14     3     7    1
    15     7     8   ar
    16     8     9   ar
    17     9    10   ar
    18    10    11   ar
    19    11    12   ar
    20    12    13   ar
    21    13    16    1
    22    16    17   ar
    23    17    18   ar
    24    18    19   ar
    25    19    20   ar
    26    13    14   ar
    27    14    15   ar
    28     3     4   ar
    29     4     5   ar
    30     5    33    1
    31    33    34    1
    32    34    35    1
    33    35    37    1
    34    37    38    1
    35    35    36    1
    36     5     6   ar
    37     6     1   ar
    38    15     7   ar
    39    36    33    1
    40    15    10   ar
    41    20    16   ar
    42    21    24    1
@<TRIPOS>MOLECULE
*****
 38 42 0 0 0
SMALL
GASTEIGER

@<TRIPOS>ATOM
      1 C         140.4554  138.6922  158.1386 C.ar    1  UNL1        0.0576
      2 C         140.1970  137.6968  157.0466 C.ar    1  UNL1        0.0239
      3 C         141.1691  137.5580  155.9128 C.ar    1  UNL1        0.0874
      4 N         142.3998  138.4147  155.8709 N.ar    1  UNL1       -0.2305
      5 C         142.6582  139.4101  156.9630 C.ar    1  UNL1        0.1319
      6 C         141.6860  139.5488  158.0968 C.ar    1  UNL1        0.0388
      7 C         140.9106  136.5627  154.8208 C.ar    1  UNL1        0.0743
      8 C         140.1185  136.8105  153.5713 C.ar    1  UNL1        0.1251
      9 N         140.1172  135.5457  152.7648 N.ar    1  UNL1       -0.1620
     10 N         140.9087  134.5164  153.5158 N.ar    1  UNL1       -0.2106
     11 C         141.2462  133.0879  153.2068 C.ar    1  UNL1        0.1036
     12 C         142.0741  132.2879  154.1684 C.ar    1  UNL1        0.0404
     13 C         142.5644  132.9164  155.4390 C.ar    1  UNL1        0.0905
     14 N         142.2269  134.3449  155.7481 N.ar    1  UNL1       -0.2259
     15 C         141.3990  135.1448  154.7865 C.ar    1  UNL1        0.1667
     16 C         143.3923  132.1164  156.4006 C.ar    1  UNL1        0.0472
     17 C         144.5836  132.6140  157.1643 C.ar    1  UNL1        0.0085
     18 C         145.1018  131.4835  158.0030 C.ar    1  UNL1        0.0075
     19 C         144.2308  130.2872  157.7577 C.ar    1  UNL1        0.0355
     20 S         143.1743  130.6784  156.7674 S.2     1  UNL1       -0.0849
     21 N         139.7651  138.1671  160.5876 N.am    1  UNL1       -0.2995
     22 C         139.4832  138.8309  159.2724 C.2     1  UNL1        0.2460
     23 O         138.2290  139.6335  159.0910 O.2     1  UNL1       -0.2701
     24 H         140.5883  137.6404  160.7067 H       1  UNL1        0.1498
     25 C         138.7929  138.3059  161.7215 C.3     1  UNL1        0.1056
     26 C         139.0911  139.2422  162.8549 C.3     1  UNL1        0.0772
     27 C         139.4415  140.6732  162.5732 C.3     1  UNL1        0.0191
     28 N         139.0391  138.7474  164.2700 N.3     1  UNL1       -0.2724
     29 C         141.2235  137.3513  164.4400 C.3     1  UNL1        0.0188
     30 C         139.7432  137.4777  164.6468 C.3     1  UNL1        0.0721
     31 C         138.2829  139.5222  165.3081 C.3     1  UNL1        0.0721
     32 C         137.9060  138.8691  166.6048 C.3     1  UNL1        0.0188
     33 N         143.8888  140.2666  156.9211 N.pl3   1  UNL1       -0.2881
     34 C         145.1594  140.2595  156.1238 C.3     1  UNL1        0.1234
     35 C         145.6293  141.4780  156.8617 C.3     1  UNL1        0.1547
     36 C         144.3587  141.4851  157.6589 C.3     1  UNL1        0.1234
     37 O         146.8599  142.3346  156.8198 O.3     1  UNL1       -0.3501
     38 C         147.2923  142.9634  155.5285 C.3     1  UNL1        0.1741
@<TRIPOS>BOND
     1    29    30    1
     2    30    28    1
     3    28    31    1
     4    31    32    1
     5    28    26    1
     6    26    27    1
     7    26    25    1
     8    25    21    1
     9    21    22   am
    10    22    23    2
    11    22     1    1
    12     1     2   ar
    13     2     3   ar
    14     3     7    1
    15     7     8   ar
    16     8     9   ar
    17     9    10   ar
    18    10    11   ar
    19    11    12   ar
    20    12    13   ar
    21    13    16    1
    22    16    17   ar
    23    17    18   ar
    24    18    19   ar
    25    19    20   ar
    26    13    14   ar
    27    14    15   ar
    28     3     4   ar
    29     4     5   ar
    30     5    33    1
    31    33    34    1
    32    34    35    1
    33    35    37    1
    34    37    38    1
    35    35    36    1
    36     5     6   ar
    37     6     1   ar
    38    15     7   ar
    39    36    33    1
    40    15    10   ar
    41    20    16   ar
    42    21    24    1
