@<TRIPOS>MOLECULE
*****
 33 35 0 0 0
SMALL
GASTEIGER

@<TRIPOS>ATOM
      1 C         140.2751  139.1904  163.7155 C.ar    1  UNL1        0.0000
      2 C         139.4170  138.4770  162.7132 C.ar    1  UNL1        0.0000
      3 C         139.8873  138.3241  161.2970 C.ar    1  UNL1        0.0016
      4 C         141.2156  138.8847  160.8832 C.ar    1  UNL1        0.0207
      5 C         142.0737  139.5981  161.8855 C.ar    1  UNL1        0.0016
      6 C         141.6035  139.7510  163.3016 C.ar    1  UNL1        0.0000
      7 C         138.8644  139.6490  167.9640 C.ar    1  UNL1        0.0222
      8 C         140.1570  140.2750  167.5312 C.ar    1  UNL1        0.0016
      9 C         140.6273  140.1221  166.1150 C.ar    1  UNL1        0.0001
     10 C         139.8049  139.3433  165.1316 C.ar    1  UNL1        0.0000
     11 C         138.5123  138.7174  165.5644 C.ar    1  UNL1        0.0001
     12 C         138.0421  138.8703  166.9806 C.ar    1  UNL1        0.0016
     13 N         137.2484  138.9750  169.8833 N.2     1  UNL1       -0.1091
     14 C         138.3942  139.8019  169.3801 C.2     1  UNL1        0.1359
     15 N         136.7782  139.1279  171.2995 N.pl3   1  UNL1       -0.1544
     16 H         136.9205  139.9773  171.7765 H       1  UNL1        0.2922
     17 N         136.5754  136.5825  171.7793 N.pl3   1  UNL1       -0.1280
     18 C         136.0910  137.9866  171.9889 C.cat   1  UNL1        0.3997
     19 N         134.9193  138.2494  172.8879 N.pl3   1  UNL1       -0.2876
     20 H         136.1244  135.8335  172.2318 H       1  UNL1        0.3062
     21 H         134.4683  137.5003  173.3404 H       1  UNL1        0.2547
     22 H         134.6014  139.1709  173.0255 H       1  UNL1        0.2547
     23 C         141.6858  138.7318  159.4670 C.2     1  UNL1        0.1175
     24 N         142.6129  137.6107  159.1014 N.2     1  UNL1       -0.1798
     25 N         143.0831  137.4578  157.6853 N.pl3   1  UNL1       -0.2351
     26 H         143.6941  138.1238  157.2949 H       1  UNL1        0.1744
     27 C         142.6224  136.2902  156.8640 C.ar    1  UNL1        0.0755
     28 C         143.3500  134.9812  156.9470 C.ar    1  UNL1        0.0169
     29 C         142.8893  133.8135  156.1257 C.ar    1  UNL1        0.0014
     30 C         141.7010  133.9550  155.2213 C.ar    1  UNL1        0.0010
     31 C         140.9734  135.2642  155.1383 C.ar    1  UNL1        0.0127
     32 C         141.4341  136.4317  155.9596 C.ar    1  UNL1        0.0724
     33 CL        140.7065  137.7408  155.8766 Cl      1  UNL1       -0.0809
@<TRIPOS>BOND
     1    17    18    2
     2    18    19    1
     3    18    15    1
     4    15    13    1
     5    13    14    2
     6    14     7    1
     7     7     8   ar
     8     8     9   ar
     9     9    10   ar
    10    10     1    1
    11     1     2   ar
    12     2     3   ar
    13     3     4   ar
    14     4    23    1
    15    23    24    2
    16    24    25    1
    17    25    27    1
    18    27    28   ar
    19    28    29   ar
    20    29    30   ar
    21    30    31   ar
    22    31    32   ar
    23    32    33    1
    24     4     5   ar
    25     5     6   ar
    26    10    11   ar
    27    11    12   ar
    28    12     7   ar
    29     6     1   ar
    30    32    27   ar
    31    17    20    1
    32    19    21    1
    33    19    22    1
    34    15    16    1
    35    25    26    1
@<TRIPOS>MOLECULE
*****
 33 35 0 0 0
SMALL
GASTEIGER

@<TRIPOS>ATOM
      1 C         142.1560  138.7176  162.9971 C.ar    1  UNL1        0.0000
      2 C         140.9546  138.7661  162.1003 C.ar    1  UNL1        0.0000
      3 C         141.0809  138.3817  160.6559 C.ar    1  UNL1        0.0016
      4 C         142.4085  137.9488  160.1083 C.ar    1  UNL1        0.0207
      5 C         143.6099  137.9003  161.0051 C.ar    1  UNL1        0.0016
      6 C         143.4837  138.2847  162.4495 C.ar    1  UNL1        0.0000
      7 C         141.7772  139.8707  167.3303 C.ar    1  UNL1        0.0222
      8 C         142.9922  139.1308  166.8546 C.ar    1  UNL1        0.0016
      9 C         143.1184  138.7464  165.4102 C.ar    1  UNL1        0.0001
     10 C         142.0298  139.1020  164.4415 C.ar    1  UNL1        0.0000
     11 C         140.8148  139.8419  164.9173 C.ar    1  UNL1        0.0001
     12 C         140.6886  140.2263  166.3617 C.ar    1  UNL1        0.0016
     13 N         140.4331  139.8551  169.5536 N.2     1  UNL1       -0.1091
     14 C         141.6510  140.2551  168.7748 C.2     1  UNL1        0.1359
     15 N         140.3068  140.2395  170.9980 N.pl3   1  UNL1       -0.1544
     16 H         139.9943  139.5789  171.6577 H       1  UNL1        0.2922
     17 N         142.0263  141.9254  171.9733 N.pl3   1  UNL1       -0.1280
     18 C         140.6568  141.6304  171.4373 C.cat   1  UNL1        0.3997
     19 N         139.6371  142.7263  171.3406 N.pl3   1  UNL1       -0.2876
     20 H         142.2560  142.8383  172.2616 H       1  UNL1        0.3062
     21 H         139.8668  143.6392  171.6289 H       1  UNL1        0.2547
     22 H         138.7382  142.5327  170.9888 H       1  UNL1        0.2547
     23 C         142.5348  137.5645  158.6639 C.2     1  UNL1        0.1175
     24 N         143.1743  136.2608  158.2879 N.2     1  UNL1       -0.1798
     25 N         143.3005  135.8764  156.8435 N.pl3   1  UNL1       -0.2351
     26 H         143.7182  136.4972  156.2036 H       1  UNL1        0.1744
     27 C         142.7904  134.5462  156.3740 C.ar    1  UNL1        0.0755
     28 C         141.6804  134.4814  155.3672 C.ar    1  UNL1        0.0169
     29 C         141.1703  133.1511  154.8978 C.ar    1  UNL1        0.0014
     30 C         141.7703  131.8857  155.4351 C.ar    1  UNL1        0.0010
     31 C         142.8803  131.9505  156.4420 C.ar    1  UNL1        0.0127
     32 C         143.3904  133.2807  156.9114 C.ar    1  UNL1        0.0724
     33 CL        144.5004  133.3456  157.9182 Cl      1  UNL1       -0.0809
@<TRIPOS>BOND
     1    17    18    2
     2    18    19    1
     3    18    15    1
     4    15    13    1
     5    13    14    2
     6    14     7    1
     7     7     8   ar
     8     8     9   ar
     9     9    10   ar
    10    10     1    1
    11     1     2   ar
    12     2     3   ar
    13     3     4   ar
    14     4    23    1
    15    23    24    2
    16    24    25    1
    17    25    27    1
    18    27    28   ar
    19    28    29   ar
    20    29    30   ar
    21    30    31   ar
    22    31    32   ar
    23    32    33    1
    24     4     5   ar
    25     5     6   ar
    26    10    11   ar
    27    11    12   ar
    28    12     7   ar
    29     6     1   ar
    30    32    27   ar
    31    17    20    1
    32    19    21    1
    33    19    22    1
    34    15    16    1
    35    25    26    1
@<TRIPOS>MOLECULE
*****
 33 35 0 0 0
SMALL
GASTEIGER

@<TRIPOS>ATOM
      1 C         142.1310  138.7254  162.8395 C.ar    1  UNL1        0.0000
      2 C         143.4989  138.4360  162.2963 C.ar    1  UNL1        0.0000
      3 C         143.6767  138.1221  160.8403 C.ar    1  UNL1        0.0016
      4 C         142.4867  138.0975  159.9276 C.ar    1  UNL1        0.0207
      5 C         141.1188  138.3868  160.4708 C.ar    1  UNL1        0.0016
      6 C         140.9410  138.7008  161.9267 C.ar    1  UNL1        0.0000
      7 C         141.5974  139.6674  167.2073 C.ar    1  UNL1        0.0222
      8 C         142.9082  139.1341  166.7097 C.ar    1  UNL1        0.0016
      9 C         143.0860  138.8202  165.2538 C.ar    1  UNL1        0.0001
     10 C         141.9531  139.0394  164.2954 C.ar    1  UNL1        0.0000
     11 C         140.6424  139.5726  164.7930 C.ar    1  UNL1        0.0001
     12 C         140.4646  139.8866  166.2490 C.ar    1  UNL1        0.0016
     13 N         140.1090  139.7003  169.3365 N.2     1  UNL1       -0.1091
     14 C         141.4196  139.9813  168.6633 C.2     1  UNL1        0.1359
     15 N         139.9311  140.0142  170.7924 N.pl3   1  UNL1       -0.1544
     16 H         139.2566  139.5302  171.3216 H       1  UNL1        0.2922
     17 N         142.1415  140.7127  171.9657 N.pl3   1  UNL1       -0.1280
     18 C         140.7809  141.0658  171.4422 C.cat   1  UNL1        0.3997
     19 N         140.2701  142.4705  171.5683 N.pl3   1  UNL1       -0.2876
     20 H         142.6992  141.4028  172.3921 H       1  UNL1        0.3062
     21 H         140.8279  143.1607  171.9947 H       1  UNL1        0.2547
     22 H         139.3772  142.7023  171.2247 H       1  UNL1        0.2547
     23 C         142.6646  137.7835  158.4716 C.2     1  UNL1        0.1175
     24 N         143.5718  138.6286  157.6275 N.2     1  UNL1       -0.1798
     25 N         143.7497  138.3146  156.1716 N.pl3   1  UNL1       -0.2351
     26 H         144.2368  138.9410  155.5888 H       1  UNL1        0.1744
     27 C         143.1853  137.0462  155.6035 C.ar    1  UNL1        0.0755
     28 C         143.9632  135.7677  155.7047 C.ar    1  UNL1        0.0169
     29 C         143.3988  134.4993  155.1366 C.ar    1  UNL1        0.0014
     30 C         142.0564  134.5095  154.4673 C.ar    1  UNL1        0.0010
     31 C         141.2785  135.7881  154.3661 C.ar    1  UNL1        0.0127
     32 C         141.8429  137.0564  154.9342 C.ar    1  UNL1        0.0724
     33 CL        141.0650  138.3349  154.8330 Cl      1  UNL1       -0.0809
@<TRIPOS>BOND
     1    17    18    2
     2    18    19    1
     3    18    15    1
     4    15    13    1
     5    13    14    2
     6    14     7    1
     7     7     8   ar
     8     8     9   ar
     9     9    10   ar
    10    10     1    1
    11     1     2   ar
    12     2     3   ar
    13     3     4   ar
    14     4    23    1
    15    23    24    2
    16    24    25    1
    17    25    27    1
    18    27    28   ar
    19    28    29   ar
    20    29    30   ar
    21    30    31   ar
    22    31    32   ar
    23    32    33    1
    24     4     5   ar
    25     5     6   ar
    26    10    11   ar
    27    11    12   ar
    28    12     7   ar
    29     6     1   ar
    30    32    27   ar
    31    17    20    1
    32    19    21    1
    33    19    22    1
    34    15    16    1
    35    25    26    1
@<TRIPOS>MOLECULE
*****
 33 35 0 0 0
SMALL
GASTEIGER

@<TRIPOS>ATOM
      1 C         142.2760  138.7703  162.7133 C.ar    1  UNL1        0.0000
      2 C         143.6259  138.5869  162.0856 C.ar    1  UNL1        0.0000
      3 C         143.7372  138.2894  160.6196 C.ar    1  UNL1        0.0016
      4 C         142.4986  138.1753  159.7814 C.ar    1  UNL1        0.0207
      5 C         141.1487  138.3587  160.4091 C.ar    1  UNL1        0.0016
      6 C         141.0374  138.6562  161.8751 C.ar    1  UNL1        0.0000
      7 C         141.9422  139.6629  167.1113 C.ar    1  UNL1        0.0222
      8 C         140.7969  139.9736  166.1939 C.ar    1  UNL1        0.0016
      9 C         140.9082  139.6761  164.7279 C.ar    1  UNL1        0.0001
     10 C         142.1648  139.0679  164.1793 C.ar    1  UNL1        0.0000
     11 C         143.3101  138.7571  165.0967 C.ar    1  UNL1        0.0001
     12 C         143.1988  139.0546  166.5627 C.ar    1  UNL1        0.0016
     13 N         142.9686  139.6312  169.4978 N.2     1  UNL1       -0.1091
     14 C         141.8310  139.9604  168.5773 C.2     1  UNL1        0.1359
     15 N         142.8573  139.9287  170.9638 N.pl3   1  UNL1       -0.1544
     16 H         143.4923  139.5238  171.5978 H       1  UNL1        0.2922
     17 N         142.1005  142.2686  171.8019 N.pl3   1  UNL1       -0.1280
     18 C         141.7784  140.8432  171.4637 C.cat   1  UNL1        0.3997
     19 N         140.3774  140.3321  171.6254 N.pl3   1  UNL1       -0.2876
     20 H         141.3924  142.8687  172.1300 H       1  UNL1        0.3062
     21 H         139.6693  140.9323  171.9535 H       1  UNL1        0.2547
     22 H         140.1660  139.3966  171.4034 H       1  UNL1        0.2547
     23 C         142.6099  137.8778  158.3154 C.2     1  UNL1        0.1175
     24 N         142.8672  136.4745  157.8523 N.2     1  UNL1       -0.1798
     25 N         142.9784  136.1770  156.3863 N.pl3   1  UNL1       -0.2351
     26 H         143.1826  136.9010  155.7512 H       1  UNL1        0.1744
     27 C         142.7786  134.7763  155.8880 C.ar    1  UNL1        0.0755
     28 C         142.9490  133.6161  156.8233 C.ar    1  UNL1        0.0169
     29 C         142.7492  132.2154  156.3250 C.ar    1  UNL1        0.0014
     30 C         142.3790  131.9750  154.8914 C.ar    1  UNL1        0.0010
     31 C         142.2087  133.1353  153.9561 C.ar    1  UNL1        0.0127
     32 C         142.4085  134.5359  154.4544 C.ar    1  UNL1        0.0724
     33 CL        142.2381  135.6963  153.5191 Cl      1  UNL1       -0.0809
@<TRIPOS>BOND
     1    17    18    2
     2    18    19    1
     3    18    15    1
     4    15    13    1
     5    13    14    2
     6    14     7    1
     7     7     8   ar
     8     8     9   ar
     9     9    10   ar
    10    10     1    1
    11     1     2   ar
    12     2     3   ar
    13     3     4   ar
    14     4    23    1
    15    23    24    2
    16    24    25    1
    17    25    27    1
    18    27    28   ar
    19    28    29   ar
    20    29    30   ar
    21    30    31   ar
    22    31    32   ar
    23    32    33    1
    24     4     5   ar
    25     5     6   ar
    26    10    11   ar
    27    11    12   ar
    28    12     7   ar
    29     6     1   ar
    30    32    27   ar
    31    17    20    1
    32    19    21    1
    33    19    22    1
    34    15    16    1
    35    25    26    1
@<TRIPOS>MOLECULE
*****
 33 35 0 0 0
SMALL
GASTEIGER

@<TRIPOS>ATOM
      1 C         141.2746  144.0422  162.3847 C.ar    1  UNL1        0.0000
      2 C         140.3112  145.1233  161.9936 C.ar    1  UNL1        0.0000
      3 C         140.2633  145.6081  160.5749 C.ar    1  UNL1        0.0016
      4 C         141.1789  145.0118  159.5473 C.ar    1  UNL1        0.0207
      5 C         142.1423  143.9307  159.9383 C.ar    1  UNL1        0.0016
      6 C         142.1902  143.4459  161.3570 C.ar    1  UNL1        0.0000
      7 C         141.4182  142.5878  166.6407 C.ar    1  UNL1        0.0222
      8 C         140.1692  143.2246  166.1075 C.ar    1  UNL1        0.0016
      9 C         140.1213  143.7094  164.6888 C.ar    1  UNL1        0.0001
     10 C         141.3225  143.5574  163.8034 C.ar    1  UNL1        0.0000
     11 C         142.5715  142.9205  164.3366 C.ar    1  UNL1        0.0001
     12 C         142.6193  142.4357  165.7553 C.ar    1  UNL1        0.0016
     13 N         140.4240  142.5513  169.0408 N.2     1  UNL1       -0.1091
     14 C         141.4661  142.1030  168.0594 C.2     1  UNL1        0.1359
     15 N         140.4719  142.0665  170.4595 N.pl3   1  UNL1       -0.1544
     16 H         139.6378  141.8392  170.9304 H       1  UNL1        0.2922
     17 N         142.1702  140.6222  171.7936 N.pl3   1  UNL1       -0.1280
     18 C         141.7907  141.9281  171.1606 C.cat   1  UNL1        0.3997
     19 N         142.7301  143.0955  171.2288 N.pl3   1  UNL1       -0.2876
     20 H         143.0357  140.5314  172.2538 H       1  UNL1        0.3062
     21 H         143.5957  143.0047  171.6890 H       1  UNL1        0.2547
     22 H         142.4810  143.9526  170.8133 H       1  UNL1        0.2547
     23 C         141.1310  145.4966  158.1286 C.2     1  UNL1        0.1175
     24 N         139.8215  145.8974  157.5168 N.2     1  UNL1       -0.1798
     25 N         139.7736  146.3822  156.0981 N.pl3   1  UNL1       -0.2351
     26 H         139.9687  145.7618  155.3590 H       1  UNL1        0.1744
     27 C         139.4284  147.8123  155.8055 C.ar    1  UNL1        0.0755
     28 C         138.6579  148.6183  156.8088 C.ar    1  UNL1        0.0169
     29 C         138.3127  150.0485  156.5162 C.ar    1  UNL1        0.0014
     30 C         138.7380  150.6726  155.2202 C.ar    1  UNL1        0.0010
     31 C         139.5084  149.8665  154.2168 C.ar    1  UNL1        0.0127
     32 C         139.8536  148.4365  154.5094 C.ar    1  UNL1        0.0724
     33 CL        140.6241  147.6304  153.5061 Cl      1  UNL1       -0.0809
@<TRIPOS>BOND
     1    17    18    2
     2    18    19    1
     3    18    15    1
     4    15    13    1
     5    13    14    2
     6    14     7    1
     7     7     8   ar
     8     8     9   ar
     9     9    10   ar
    10    10     1    1
    11     1     2   ar
    12     2     3   ar
    13     3     4   ar
    14     4    23    1
    15    23    24    2
    16    24    25    1
    17    25    27    1
    18    27    28   ar
    19    28    29   ar
    20    29    30   ar
    21    30    31   ar
    22    31    32   ar
    23    32    33    1
    24     4     5   ar
    25     5     6   ar
    26    10    11   ar
    27    11    12   ar
    28    12     7   ar
    29     6     1   ar
    30    32    27   ar
    31    17    20    1
    32    19    21    1
    33    19    22    1
    34    15    16    1
    35    25    26    1
@<TRIPOS>MOLECULE
*****
 33 35 0 0 0
SMALL
GASTEIGER

@<TRIPOS>ATOM
      1 C         141.8329  143.9985  161.6284 C.ar    1  UNL1        0.0000
      2 C         142.5979  143.5238  160.4286 C.ar    1  UNL1        0.0000
      3 C         142.3243  144.1212  159.0801 C.ar    1  UNL1        0.0016
      4 C         141.2858  145.1933  158.9315 C.ar    1  UNL1        0.0207
      5 C         140.5208  145.6679  160.1313 C.ar    1  UNL1        0.0016
      6 C         140.7944  145.0705  161.4797 C.ar    1  UNL1        0.0000
      7 C         142.6537  142.2062  165.6736 C.ar    1  UNL1        0.0222
      8 C         143.7925  142.5419  164.7570 C.ar    1  UNL1        0.0016
      9 C         143.5189  143.1393  163.4086 C.ar    1  UNL1        0.0001
     10 C         142.1065  143.4011  162.9768 C.ar    1  UNL1        0.0000
     11 C         140.9677  143.0654  163.8934 C.ar    1  UNL1        0.0001
     12 C         141.2412  142.4680  165.2419 C.ar    1  UNL1        0.0016
     13 N         142.7626  142.4416  168.2587 N.2     1  UNL1       -0.1091
     14 C         142.9272  141.6088  167.0221 C.2     1  UNL1        0.1359
     15 N         143.0361  141.8441  169.6071 N.pl3   1  UNL1       -0.1544
     16 H         143.4320  140.9454  169.6762 H       1  UNL1        0.2922
     17 N         141.7009  142.0766  171.8237 N.pl3   1  UNL1       -0.1280
     18 C         142.7066  142.6161  170.8504 C.cat   1  UNL1        0.3997
     19 N         143.3827  143.9277  171.1201 N.pl3   1  UNL1       -0.2876
     20 H         141.4846  142.5833  172.6396 H       1  UNL1        0.3062
     21 H         143.1664  144.4343  171.9360 H       1  UNL1        0.2547
     22 H         144.0428  144.2818  170.4812 H       1  UNL1        0.2547
     23 C         141.0122  145.7907  157.5831 C.2     1  UNL1        0.1175
     24 N         139.7236  145.4897  156.8769 N.2     1  UNL1       -0.1798
     25 N         139.4500  146.0871  155.5284 N.pl3   1  UNL1       -0.2351
     26 H         139.3454  145.5027  154.7431 H       1  UNL1        0.1744
     27 C         139.3358  147.5751  155.3765 C.ar    1  UNL1        0.0755
     28 C         138.5669  148.3752  156.3857 C.ar    1  UNL1        0.0169
     29 C         138.4527  149.8632  156.2338 C.ar    1  UNL1        0.0014
     30 C         139.1075  150.5509  155.0727 C.ar    1  UNL1        0.0010
     31 C         139.8765  149.7507  154.0635 C.ar    1  UNL1        0.0127
     32 C         139.9906  148.2629  154.2154 C.ar    1  UNL1        0.0724
     33 CL        140.7596  147.4627  153.2062 Cl      1  UNL1       -0.0809
@<TRIPOS>BOND
     1    17    18    2
     2    18    19    1
     3    18    15    1
     4    15    13    1
     5    13    14    2
     6    14     7    1
     7     7     8   ar
     8     8     9   ar
     9     9    10   ar
    10    10     1    1
    11     1     2   ar
    12     2     3   ar
    13     3     4   ar
    14     4    23    1
    15    23    24    2
    16    24    25    1
    17    25    27    1
    18    27    28   ar
    19    28    29   ar
    20    29    30   ar
    21    30    31   ar
    22    31    32   ar
    23    32    33    1
    24     4     5   ar
    25     5     6   ar
    26    10    11   ar
    27    11    12   ar
    28    12     7   ar
    29     6     1   ar
    30    32    27   ar
    31    17    20    1
    32    19    21    1
    33    19    22    1
    34    15    16    1
    35    25    26    1
@<TRIPOS>MOLECULE
*****
 33 35 0 0 0
SMALL
GASTEIGER

@<TRIPOS>ATOM
      1 C         141.0779  138.6084  161.9488 C.ar    1  UNL1        0.0000
      2 C         142.4272  137.9872  161.7410 C.ar    1  UNL1        0.0000
      3 C         142.9387  137.7524  160.3506 C.ar    1  UNL1        0.0016
      4 C         142.1008  138.1388  159.1680 C.ar    1  UNL1        0.0207
      5 C         140.7514  138.7600  159.3758 C.ar    1  UNL1        0.0016
      6 C         140.2399  138.9948  160.7663 C.ar    1  UNL1        0.0000
      7 C         139.5435  139.3129  166.1201 C.ar    1  UNL1        0.0222
      8 C         140.6842  140.1315  165.5924 C.ar    1  UNL1        0.0016
      9 C         141.1957  139.8966  164.2019 C.ar    1  UNL1        0.0001
     10 C         140.5664  138.8432  163.3393 C.ar    1  UNL1        0.0000
     11 C         139.4256  138.0247  163.8670 C.ar    1  UNL1        0.0001
     12 C         138.9142  138.2595  165.2574 C.ar    1  UNL1        0.0016
     13 N         139.6952  140.5642  168.3919 N.2     1  UNL1       -0.1091
     14 C         139.0320  139.5477  167.5105 C.2     1  UNL1        0.1359
     15 N         139.1838  140.7990  169.7823 N.pl3   1  UNL1       -0.1544
     16 H         138.2797  140.4992  170.0315 H       1  UNL1        0.2922
     17 N         140.8194  140.6853  171.7977 N.pl3   1  UNL1       -0.1280
     18 C         140.0498  141.4906  170.7932 C.cat   1  UNL1        0.3997
     19 N         140.1461  142.9875  170.7994 N.pl3   1  UNL1       -0.2876
     20 H         141.3878  141.1393  172.4612 H       1  UNL1        0.3062
     21 H         140.7145  143.4414  171.4629 H       1  UNL1        0.2547
     22 H         139.6410  143.5160  170.1401 H       1  UNL1        0.2547
     23 C         142.6122  137.9040  157.7776 C.2     1  UNL1        0.1175
     24 N         143.3640  136.6461  157.4574 N.2     1  UNL1       -0.1798
     25 N         143.8755  136.4113  156.0670 N.pl3   1  UNL1       -0.2351
     26 H         144.6691  136.8974  155.7458 H       1  UNL1        0.1744
     27 C         143.1778  135.4358  155.1660 C.ar    1  UNL1        0.0755
     28 C         142.3344  135.9346  154.0304 C.ar    1  UNL1        0.0169
     29 C         141.6367  134.9591  153.1294 C.ar    1  UNL1        0.0014
     30 C         141.7825  133.4848  153.3641 C.ar    1  UNL1        0.0010
     31 C         142.6260  132.9860  154.4998 C.ar    1  UNL1        0.0127
     32 C         143.3236  133.9615  155.4007 C.ar    1  UNL1        0.0724
     33 CL        144.1672  133.4626  156.5364 Cl      1  UNL1       -0.0809
@<TRIPOS>BOND
     1    17    18    2
     2    18    19    1
     3    18    15    1
     4    15    13    1
     5    13    14    2
     6    14     7    1
     7     7     8   ar
     8     8     9   ar
     9     9    10   ar
    10    10     1    1
    11     1     2   ar
    12     2     3   ar
    13     3     4   ar
    14     4    23    1
    15    23    24    2
    16    24    25    1
    17    25    27    1
    18    27    28   ar
    19    28    29   ar
    20    29    30   ar
    21    30    31   ar
    22    31    32   ar
    23    32    33    1
    24     4     5   ar
    25     5     6   ar
    26    10    11   ar
    27    11    12   ar
    28    12     7   ar
    29     6     1   ar
    30    32    27   ar
    31    17    20    1
    32    19    21    1
    33    19    22    1
    34    15    16    1
    35    25    26    1
@<TRIPOS>MOLECULE
*****
 33 35 0 0 0
SMALL
GASTEIGER

@<TRIPOS>ATOM
      1 C         141.0927  143.7672  163.0008 C.ar    1  UNL1        0.0000
      2 C         140.5440  145.1299  162.6978 C.ar    1  UNL1        0.0000
      3 C         140.4197  145.5892  161.2753 C.ar    1  UNL1        0.0016
      4 C         140.8443  144.6857  160.1557 C.ar    1  UNL1        0.0207
      5 C         141.3930  143.3230  160.4587 C.ar    1  UNL1        0.0016
      6 C         141.5173  142.8638  161.8812 C.ar    1  UNL1        0.0000
      7 C         141.4655  142.3895  167.2685 C.ar    1  UNL1        0.0222
      8 C         142.6467  142.3068  166.3478 C.ar    1  UNL1        0.0016
      9 C         142.5225  142.7661  164.9252 C.ar    1  UNL1        0.0001
     10 C         141.2170  143.3080  164.4233 C.ar    1  UNL1        0.0000
     11 C         140.0357  143.3907  165.3440 C.ar    1  UNL1        0.0001
     12 C         140.1600  142.9315  166.7666 C.ar    1  UNL1        0.0016
     13 N         142.1711  142.8463  169.7268 N.2     1  UNL1       -0.1091
     14 C         141.5897  141.9303  168.6910 C.2     1  UNL1        0.1359
     15 N         142.2953  142.3871  171.1493 N.pl3   1  UNL1       -0.1544
     16 H         142.5305  143.0311  171.8558 H       1  UNL1        0.2922
     17 N         143.2001  139.9711  171.4571 N.pl3   1  UNL1       -0.1280
     18 C         142.0611  140.9464  171.4955 C.cat   1  UNL1        0.3997
     19 N         140.6880  140.4811  171.8802 N.pl3   1  UNL1       -0.2876
     20 H         143.0464  139.0256  171.6843 H       1  UNL1        0.3062
     21 H         140.5343  139.5356  172.1074 H       1  UNL1        0.2547
     22 H         139.9404  141.1213  171.9054 H       1  UNL1        0.2547
     23 C         140.7200  145.1450  158.7331 C.2     1  UNL1        0.1175
     24 N         141.7840  146.0132  158.1297 N.2     1  UNL1       -0.1798
     25 N         141.6597  146.4724  156.7071 N.pl3   1  UNL1       -0.2351
     26 H         142.2818  147.1476  156.3517 H       1  UNL1        0.1744
     27 C         140.5876  145.9028  155.8260 C.ar    1  UNL1        0.0755
     28 C         140.8812  144.7129  154.9612 C.ar    1  UNL1        0.0169
     29 C         139.8091  144.1432  154.0802 C.ar    1  UNL1        0.0014
     30 C         138.4435  144.7636  154.0639 C.ar    1  UNL1        0.0010
     31 C         138.1500  145.9536  154.9287 C.ar    1  UNL1        0.0127
     32 C         139.2220  146.5232  155.8098 C.ar    1  UNL1        0.0724
     33 CL        138.9285  147.7131  156.6746 Cl      1  UNL1       -0.0809
@<TRIPOS>BOND
     1    17    18    2
     2    18    19    1
     3    18    15    1
     4    15    13    1
     5    13    14    2
     6    14     7    1
     7     7     8   ar
     8     8     9   ar
     9     9    10   ar
    10    10     1    1
    11     1     2   ar
    12     2     3   ar
    13     3     4   ar
    14     4    23    1
    15    23    24    2
    16    24    25    1
    17    25    27    1
    18    27    28   ar
    19    28    29   ar
    20    29    30   ar
    21    30    31   ar
    22    31    32   ar
    23    32    33    1
    24     4     5   ar
    25     5     6   ar
    26    10    11   ar
    27    11    12   ar
    28    12     7   ar
    29     6     1   ar
    30    32    27   ar
    31    17    20    1
    32    19    21    1
    33    19    22    1
    34    15    16    1
    35    25    26    1
@<TRIPOS>MOLECULE
*****
 33 35 0 0 0
SMALL
GASTEIGER

@<TRIPOS>ATOM
      1 C         143.4631  141.2979  162.5621 C.ar    1  UNL1        0.0000
      2 C         143.1295  140.1171  161.6992 C.ar    1  UNL1        0.0000
      3 C         143.3894  140.1698  160.2228 C.ar    1  UNL1        0.0016
      4 C         143.9828  141.4032  159.6093 C.ar    1  UNL1        0.0207
      5 C         144.3164  142.5839  160.4722 C.ar    1  UNL1        0.0016
      6 C         144.0565  142.5313  161.9486 C.ar    1  UNL1        0.0000
      7 C         142.6834  141.1398  166.9912 C.ar    1  UNL1        0.0222
      8 C         143.2802  142.3719  166.3782 C.ar    1  UNL1        0.0016
      9 C         143.5401  142.4246  164.9018 C.ar    1  UNL1        0.0001
     10 C         143.2032  141.2452  164.0384 C.ar    1  UNL1        0.0000
     11 C         142.6064  140.0131  164.6514 C.ar    1  UNL1        0.0001
     12 C         142.3465  139.9604  166.1278 C.ar    1  UNL1        0.0016
     13 N         142.7232  142.2809  169.3249 N.2     1  UNL1       -0.1091
     14 C         142.4235  141.0871  168.4676 C.2     1  UNL1        0.1359
     15 N         142.4633  142.2282  170.8013 N.pl3   1  UNL1       -0.1544
     16 H         143.1874  142.4327  171.4362 H       1  UNL1        0.2922
     17 N         140.8588  140.5074  171.9033 N.pl3   1  UNL1       -0.1280
     18 C         141.1001  141.8639  171.3103 C.cat   1  UNL1        0.3997
     19 N         139.9783  142.8561  171.2263 N.pl3   1  UNL1       -0.2876
     20 H         139.9641  140.2683  172.2374 H       1  UNL1        0.3062
     21 H         139.0836  142.6170  171.5604 H       1  UNL1        0.2547
     22 H         140.1367  143.7464  170.8371 H       1  UNL1        0.2547
     23 C         144.2427  141.4559  158.1329 C.2     1  UNL1        0.1175
     24 N         144.6569  142.7462  157.4899 N.2     1  UNL1       -0.1798
     25 N         144.9168  142.7989  156.0135 N.pl3   1  UNL1       -0.2351
     26 H         144.1903  143.0393  155.3941 H       1  UNL1        0.1744
     27 C         146.2836  142.4853  155.4809 C.ar    1  UNL1        0.0755
     28 C         147.4426  142.3492  156.4232 C.ar    1  UNL1        0.0169
     29 C         148.8094  142.0356  155.8907 C.ar    1  UNL1        0.0014
     30 C         149.0171  141.8581  154.4157 C.ar    1  UNL1        0.0010
     31 C         147.8579  141.9942  153.4734 C.ar    1  UNL1        0.0127
     32 C         146.4912  142.3078  154.0060 C.ar    1  UNL1        0.0724
     33 CL        145.3321  142.4439  153.0637 Cl      1  UNL1       -0.0809
@<TRIPOS>BOND
     1    17    18    2
     2    18    19    1
     3    18    15    1
     4    15    13    1
     5    13    14    2
     6    14     7    1
     7     7     8   ar
     8     8     9   ar
     9     9    10   ar
    10    10     1    1
    11     1     2   ar
    12     2     3   ar
    13     3     4   ar
    14     4    23    1
    15    23    24    2
    16    24    25    1
    17    25    27    1
    18    27    28   ar
    19    28    29   ar
    20    29    30   ar
    21    30    31   ar
    22    31    32   ar
    23    32    33    1
    24     4     5   ar
    25     5     6   ar
    26    10    11   ar
    27    11    12   ar
    28    12     7   ar
    29     6     1   ar
    30    32    27   ar
    31    17    20    1
    32    19    21    1
    33    19    22    1
    34    15    16    1
    35    25    26    1
