@<TRIPOS>MOLECULE
*****
 32 36 0 0 0
SMALL
GASTEIGER

@<TRIPOS>ATOM
      1 N         143.6252  142.9079  160.5634 N.ar    1  UNL1       -0.1982
      2 N         142.5236  143.9212  160.6623 N.ar    1  UNL1       -0.1667
      3 C         142.4123  144.3464  162.0964 C.ar    1  UNL1        0.0849
      4 C         143.4451  143.5958  162.8839 C.ar    1  UNL1        0.0334
      5 C         143.7999  143.6070  164.3413 C.ar    1  UNL1        0.0027
      6 C         144.9041  142.7293  164.8512 C.ar    1  UNL1        0.0001
      7 C         145.6537  141.8402  163.9037 C.ar    1  UNL1        0.0015
      8 C         145.2990  141.8290  162.4463 C.ar    1  UNL1        0.0193
      9 C         144.1947  142.7068  161.9364 C.ar    1  UNL1        0.0870
     10 C         145.3339  139.1193  154.7876 C.3     1  UNL1        0.1353
     11 N         145.6184  140.3965  155.5211 N.ar    1  UNL1       -0.2728
     12 C         146.5884  141.4593  155.0973 C.ar    1  UNL1        0.3517
     13 O         147.4442  141.4316  153.8657 O.2     1  UNL1       -0.2444
     14 N         146.5523  142.5547  156.1214 N.ar    1  UNL1       -0.1734
     15 C         145.5600  142.1689  157.1781 C.ar    1  UNL1        0.1662
     16 N         145.1075  142.8598  158.4302 N.ar    1  UNL1       -0.3071
     17 C         144.0778  142.2169  159.3112 C.ar    1  UNL1        0.2329
     18 N         143.5006  140.8831  158.9402 N.ar    1  UNL1       -0.1954
     19 C         143.9531  140.1921  157.6881 C.ar    1  UNL1        0.1475
     20 N         143.3759  138.8583  157.3170 N.pl3   1  UNL1       -0.3413
     21 C         144.9828  140.8350  156.8070 C.ar    1  UNL1        0.1296
     22 H         145.4863  143.7353  158.6737 H       1  UNL1        0.1703
     23 H         142.7001  138.4363  157.8953 H       1  UNL1        0.1438
     24 H         143.6729  138.4048  156.4952 H       1  UNL1        0.1438
     25 C         141.4391  145.3465  162.6465 C.3     1  UNL1        0.0762
     26 C         140.1427  144.8826  163.2414 C.ar    1  UNL1        0.0113
     27 C         139.9111  144.9992  164.7189 C.ar    1  UNL1       -0.0017
     28 C         138.6147  144.5352  165.3137 C.ar    1  UNL1       -0.0002
     29 C         137.5498  143.9547  164.4311 C.ar    1  UNL1        0.0023
     30 C         137.7813  143.8381  162.9537 C.ar    1  UNL1        0.0293
     31 C         139.0778  144.3020  162.3589 C.ar    1  UNL1        0.1365
     32 F         139.3093  144.1855  160.8814 F       1  UNL1       -0.2045
@<TRIPOS>BOND
     1    10    11    1
     2    11    12   ar
     3    12    13    2
     4    12    14   ar
     5    14    15   ar
     6    15    16   ar
     7    16    17   ar
     8    17     1    1
     9     1     2   ar
    10     2     3   ar
    11     3    25    1
    12    25    26    1
    13    26    27   ar
    14    27    28   ar
    15    28    29   ar
    16    29    30   ar
    17    30    31   ar
    18    31    32    1
    19     3     4   ar
    20     4     5   ar
    21     5     6   ar
    22     6     7   ar
    23     7     8   ar
    24     8     9   ar
    25    17    18   ar
    26    18    19   ar
    27    19    20    1
    28    19    21   ar
    29    21    11   ar
    30    21    15    1
    31     9     1   ar
    32    31    26   ar
    33     9     4   ar
    34    16    22    1
    35    20    23    1
    36    20    24    1
@<TRIPOS>MOLECULE
*****
 32 36 0 0 0
SMALL
GASTEIGER

@<TRIPOS>ATOM
      1 N         142.9071  138.7786  160.6790 N.ar    1  UNL1       -0.1982
      2 N         144.0020  139.7949  160.8148 N.ar    1  UNL1       -0.1667
      3 C         144.2213  140.0473  162.2771 C.ar    1  UNL1        0.0849
      4 C         143.2619  139.1870  163.0449 C.ar    1  UNL1        0.0334
      5 C         143.0230  139.0162  164.5159 C.ar    1  UNL1        0.0027
      6 C         141.9720  138.0615  164.9992 C.ar    1  UNL1        0.0001
      7 C         141.1597  137.2774  164.0115 C.ar    1  UNL1        0.0015
      8 C         141.3986  137.4481  162.5405 C.ar    1  UNL1        0.0193
      9 C         142.4497  138.4029  162.0572 C.ar    1  UNL1        0.0870
     10 C         140.9307  135.8468  154.5040 C.3     1  UNL1        0.1353
     11 N         140.4867  136.7729  155.5973 N.ar    1  UNL1       -0.2728
     12 C         139.1711  137.4904  155.6649 C.ar    1  UNL1        0.3517
     13 O         138.0686  137.4079  154.6512 O.2     1  UNL1       -0.2444
     14 N         139.1517  138.3049  156.9244 N.ar    1  UNL1       -0.1734
     15 C         140.4552  138.0908  157.6351 C.ar    1  UNL1        0.1662
     16 N         140.9975  138.6357  158.9231 N.ar    1  UNL1       -0.3071
     17 C         142.3648  138.2337  159.3909 C.ar    1  UNL1        0.2329
     18 N         143.1898  137.2869  158.5707 N.ar    1  UNL1       -0.1954
     19 C         142.6476  136.7420  157.2827 C.ar    1  UNL1        0.1475
     20 N         143.4726  135.7951  156.4624 N.pl3   1  UNL1       -0.3413
     21 C         141.2803  137.1439  156.8149 C.ar    1  UNL1        0.1296
     22 H         140.4560  139.2571  159.4614 H       1  UNL1        0.1703
     23 H         144.3700  135.5313  156.7695 H       1  UNL1        0.1438
     24 H         143.1167  135.4375  155.6171 H       1  UNL1        0.1438
     25 C         145.2239  140.9938  162.8677 C.3     1  UNL1        0.0762
     26 C         144.7838  142.3395  163.3629 C.ar    1  UNL1        0.0113
     27 C         144.7743  142.6310  164.8343 C.ar    1  UNL1       -0.0017
     28 C         144.3342  143.9767  165.3294 C.ar    1  UNL1       -0.0002
     29 C         143.9035  145.0310  164.3532 C.ar    1  UNL1        0.0023
     30 C         143.9129  144.7395  162.8819 C.ar    1  UNL1        0.0293
     31 C         144.3531  143.3938  162.3867 C.ar    1  UNL1        0.1365
     32 F         144.3625  143.1023  160.9153 F       1  UNL1       -0.2045
@<TRIPOS>BOND
     1    10    11    1
     2    11    12   ar
     3    12    13    2
     4    12    14   ar
     5    14    15   ar
     6    15    16   ar
     7    16    17   ar
     8    17     1    1
     9     1     2   ar
    10     2     3   ar
    11     3    25    1
    12    25    26    1
    13    26    27   ar
    14    27    28   ar
    15    28    29   ar
    16    29    30   ar
    17    30    31   ar
    18    31    32    1
    19     3     4   ar
    20     4     5   ar
    21     5     6   ar
    22     6     7   ar
    23     7     8   ar
    24     8     9   ar
    25    17    18   ar
    26    18    19   ar
    27    19    20    1
    28    19    21   ar
    29    21    11   ar
    30    21    15    1
    31     9     1   ar
    32    31    26   ar
    33     9     4   ar
    34    16    22    1
    35    20    23    1
    36    20    24    1
@<TRIPOS>MOLECULE
*****
 32 36 0 0 0
SMALL
GASTEIGER

@<TRIPOS>ATOM
      1 N         141.8299  144.0218  161.8791 N.ar    1  UNL1       -0.1982
      2 N         142.9947  143.6074  162.7286 N.ar    1  UNL1       -0.1667
      3 C         142.5024  143.4264  164.1339 C.ar    1  UNL1        0.0849
      4 C         141.0333  143.7290  164.1529 C.ar    1  UNL1        0.0334
      5 C         140.0203  143.7170  165.2591 C.ar    1  UNL1        0.0027
      6 C         138.5918  144.0730  164.9718 C.ar    1  UNL1        0.0001
      7 C         138.1762  144.4410  163.5782 C.ar    1  UNL1        0.0015
      8 C         139.1892  144.4530  162.4720 C.ar    1  UNL1        0.0193
      9 C         140.6177  144.0970  162.7594 C.ar    1  UNL1        0.0870
     10 C         142.5622  144.9589  154.8636 C.3     1  UNL1        0.1353
     11 N         141.7468  145.3615  156.0565 N.ar    1  UNL1       -0.2728
     12 C         140.5837  146.3088  156.0504 C.ar    1  UNL1        0.3517
     13 O         140.0319  147.0198  154.8504 O.2     1  UNL1       -0.2444
     14 N         140.0694  146.4202  157.4551 N.ar    1  UNL1       -0.1734
     15 C         140.9146  145.5418  158.3292 C.ar    1  UNL1        0.1662
     16 N         140.8741  145.2533  159.8006 N.ar    1  UNL1       -0.3071
     17 C         141.8704  144.3104  160.4076 C.ar    1  UNL1        0.2329
     18 N         142.9070  143.6561  159.5432 N.ar    1  UNL1       -0.1954
     19 C         142.9475  143.9447  158.0718 C.ar    1  UNL1        0.1475
     20 N         143.9842  143.2904  157.2074 N.pl3   1  UNL1       -0.3413
     21 C         141.9513  144.8875  157.4648 C.ar    1  UNL1        0.1296
     22 H         140.1937  145.6827  160.3680 H       1  UNL1        0.1703
     23 H         144.6380  142.6715  157.6059 H       1  UNL1        0.1438
     24 H         144.0107  143.4798  156.2417 H       1  UNL1        0.1438
     25 C         143.3332  143.0151  165.3131 C.3     1  UNL1        0.0762
     26 C         143.2406  141.6153  165.8440 C.ar    1  UNL1        0.0113
     27 C         143.7005  140.4619  165.0023 C.ar    1  UNL1       -0.0017
     28 C         143.6079  139.0622  165.5333 C.ar    1  UNL1       -0.0002
     29 C         143.0554  138.8157  166.9059 C.ar    1  UNL1        0.0023
     30 C         142.5955  139.9689  167.7475 C.ar    1  UNL1        0.0293
     31 C         142.6881  141.3687  167.2166 C.ar    1  UNL1        0.1365
     32 F         142.2282  142.5221  168.0582 F       1  UNL1       -0.2045
@<TRIPOS>BOND
     1    10    11    1
     2    11    12   ar
     3    12    13    2
     4    12    14   ar
     5    14    15   ar
     6    15    16   ar
     7    16    17   ar
     8    17     1    1
     9     1     2   ar
    10     2     3   ar
    11     3    25    1
    12    25    26    1
    13    26    27   ar
    14    27    28   ar
    15    28    29   ar
    16    29    30   ar
    17    30    31   ar
    18    31    32    1
    19     3     4   ar
    20     4     5   ar
    21     5     6   ar
    22     6     7   ar
    23     7     8   ar
    24     8     9   ar
    25    17    18   ar
    26    18    19   ar
    27    19    20    1
    28    19    21   ar
    29    21    11   ar
    30    21    15    1
    31     9     1   ar
    32    31    26   ar
    33     9     4   ar
    34    16    22    1
    35    20    23    1
    36    20    24    1
@<TRIPOS>MOLECULE
*****
 32 36 0 0 0
SMALL
GASTEIGER

@<TRIPOS>ATOM
      1 N         142.1030  142.7276  162.8268 N.ar    1  UNL1       -0.1982
      2 N         142.8637  142.2785  164.0391 N.ar    1  UNL1       -0.1667
      3 C         142.0568  142.6367  165.2517 C.ar    1  UNL1        0.0849
      4 C         140.7973  143.3072  164.7888 C.ar    1  UNL1        0.0334
      5 C         139.6281  143.8739  165.5384 C.ar    1  UNL1        0.0027
      6 C         138.4876  144.4967  164.7894 C.ar    1  UNL1        0.0001
      7 C         138.5161  144.5529  163.2906 C.ar    1  UNL1        0.0015
      8 C         139.6853  143.9862  162.5411 C.ar    1  UNL1        0.0193
      9 C         140.8259  143.3634  163.2902 C.ar    1  UNL1        0.0870
     10 C         144.0213  142.6408  155.9752 C.3     1  UNL1        0.1353
     11 N         143.9207  141.7970  157.2112 N.ar    1  UNL1       -0.2728
     12 C         144.3024  140.3508  157.3249 C.ar    1  UNL1        0.3517
     13 O         144.8516  139.4946  156.2225 O.2     1  UNL1       -0.2444
     14 N         144.0383  139.9113  158.7345 N.ar    1  UNL1       -0.1734
     15 C         143.4935  141.0857  159.4920 C.ar    1  UNL1        0.1662
     16 N         143.0543  141.2445  160.9174 N.ar    1  UNL1       -0.3071
     17 C         142.5423  142.5687  161.4013 C.ar    1  UNL1        0.2329
     18 N         142.4696  143.7342  160.4598 N.ar    1  UNL1       -0.1954
     19 C         142.9088  143.5754  159.0344 C.ar    1  UNL1        0.1475
     20 N         142.8361  144.7409  158.0930 N.pl3   1  UNL1       -0.3413
     21 C         143.4208  142.2512  158.5505 C.ar    1  UNL1        0.1296
     22 H         143.1020  140.4796  161.5353 H       1  UNL1        0.1703
     23 H         142.5001  145.6101  158.4106 H       1  UNL1        0.1438
     24 H         143.1245  144.6367  157.1574 H       1  UNL1        0.1438
     25 C         142.4417  142.3710  166.6769 C.3     1  UNL1        0.0762
     26 C         141.4174  141.8638  167.6483 C.ar    1  UNL1        0.0113
     27 C         141.0445  142.6890  168.8442 C.ar    1  UNL1       -0.0017
     28 C         140.0202  142.1818  169.8155 C.ar    1  UNL1       -0.0002
     29 C         139.3689  140.8493  169.5910 C.ar    1  UNL1        0.0023
     30 C         139.7418  140.0242  168.3953 C.ar    1  UNL1        0.0293
     31 C         140.7660  140.5314  167.4239 C.ar    1  UNL1        0.1365
     32 F         141.1390  139.7062  166.2280 F       1  UNL1       -0.2045
@<TRIPOS>BOND
     1    10    11    1
     2    11    12   ar
     3    12    13    2
     4    12    14   ar
     5    14    15   ar
     6    15    16   ar
     7    16    17   ar
     8    17     1    1
     9     1     2   ar
    10     2     3   ar
    11     3    25    1
    12    25    26    1
    13    26    27   ar
    14    27    28   ar
    15    28    29   ar
    16    29    30   ar
    17    30    31   ar
    18    31    32    1
    19     3     4   ar
    20     4     5   ar
    21     5     6   ar
    22     6     7   ar
    23     7     8   ar
    24     8     9   ar
    25    17    18   ar
    26    18    19   ar
    27    19    20    1
    28    19    21   ar
    29    21    11   ar
    30    21    15    1
    31     9     1   ar
    32    31    26   ar
    33     9     4   ar
    34    16    22    1
    35    20    23    1
    36    20    24    1
@<TRIPOS>MOLECULE
*****
 32 36 0 0 0
SMALL
GASTEIGER

@<TRIPOS>ATOM
      1 N         141.2281  143.8227  161.9229 N.ar    1  UNL1       -0.1982
      2 N         142.5212  143.3748  162.5372 N.ar    1  UNL1       -0.1667
      3 C         142.3065  143.2286  164.0145 C.ar    1  UNL1        0.0849
      4 C         140.8806  143.5861  164.3133 C.ar    1  UNL1        0.0334
      5 C         140.1030  143.6247  165.5954 C.ar    1  UNL1        0.0027
      6 C         138.6591  144.0305  165.5849 C.ar    1  UNL1        0.0001
      7 C         137.9925  144.3977  164.2921 C.ar    1  UNL1        0.0015
      8 C         138.7701  144.3590  163.0100 C.ar    1  UNL1        0.0193
      9 C         140.2142  143.9532  163.0206 C.ar    1  UNL1        0.0870
     10 C         140.6337  145.5459  155.0447 C.3     1  UNL1        0.1353
     11 N         140.0462  144.6942  156.1308 N.ar    1  UNL1       -0.2728
     12 C         138.8860  143.7548  155.9843 C.ar    1  UNL1        0.3517
     13 O         138.1096  143.5021  154.7260 O.2     1  UNL1       -0.2444
     14 N         138.6386  143.1125  157.3171 N.ar    1  UNL1       -0.1734
     15 C         139.6458  143.6549  158.2872 C.ar    1  UNL1        0.1662
     16 N         139.8832  143.3850  159.7435 N.ar    1  UNL1       -0.3071
     17 C         140.9906  144.0926  160.4666 C.ar    1  UNL1        0.2329
     18 N         141.8606  145.0702  159.7334 N.ar    1  UNL1       -0.1954
     19 C         141.6232  145.3401  158.2772 C.ar    1  UNL1        0.1475
     20 N         142.4931  146.3177  157.5440 N.pl3   1  UNL1       -0.3413
     21 C         140.5158  144.6325  157.5541 C.ar    1  UNL1        0.1296
     22 H         139.3123  142.7433  160.2247 H       1  UNL1        0.1703
     23 H         143.2200  146.7821  158.0187 H       1  UNL1        0.1438
     24 H         142.3373  146.4949  156.5882 H       1  UNL1        0.1438
     25 C         143.3367  142.8001  165.0171 C.3     1  UNL1        0.0762
     26 C         143.2837  141.4207  165.6040 C.ar    1  UNL1        0.0113
     27 C         143.7881  140.2496  164.8141 C.ar    1  UNL1       -0.0017
     28 C         143.7351  138.8703  165.4011 C.ar    1  UNL1       -0.0002
     29 C         143.1777  138.6621  166.7781 C.ar    1  UNL1        0.0023
     30 C         142.6733  139.8332  167.5680 C.ar    1  UNL1        0.0293
     31 C         142.7263  141.2125  166.9810 C.ar    1  UNL1        0.1365
     32 F         142.2219  142.3837  167.7709 F       1  UNL1       -0.2045
@<TRIPOS>BOND
     1    10    11    1
     2    11    12   ar
     3    12    13    2
     4    12    14   ar
     5    14    15   ar
     6    15    16   ar
     7    16    17   ar
     8    17     1    1
     9     1     2   ar
    10     2     3   ar
    11     3    25    1
    12    25    26    1
    13    26    27   ar
    14    27    28   ar
    15    28    29   ar
    16    29    30   ar
    17    30    31   ar
    18    31    32    1
    19     3     4   ar
    20     4     5   ar
    21     5     6   ar
    22     6     7   ar
    23     7     8   ar
    24     8     9   ar
    25    17    18   ar
    26    18    19   ar
    27    19    20    1
    28    19    21   ar
    29    21    11   ar
    30    21    15    1
    31     9     1   ar
    32    31    26   ar
    33     9     4   ar
    34    16    22    1
    35    20    23    1
    36    20    24    1
@<TRIPOS>MOLECULE
*****
 32 36 0 0 0
SMALL
GASTEIGER

@<TRIPOS>ATOM
      1 N         140.9112  141.3238  163.0990 N.ar    1  UNL1       -0.1982
      2 N         141.7644  141.1696  164.3230 N.ar    1  UNL1       -0.1667
      3 C         141.2427  142.1055  165.3728 C.ar    1  UNL1        0.0849
      4 C         140.0670  142.8381  164.7975 C.ar    1  UNL1        0.0334
      5 C         139.1565  143.8828  165.3717 C.ar    1  UNL1        0.0027
      6 C         138.0411  144.4443  164.5407 C.ar    1  UNL1        0.0001
      7 C         137.8362  143.9612  163.1354 C.ar    1  UNL1        0.0015
      8 C         138.7467  142.9166  162.5612 C.ar    1  UNL1        0.0193
      9 C         139.8621  142.3551  163.3923 C.ar    1  UNL1        0.0870
     10 C         142.3854  137.8458  157.0689 C.3     1  UNL1        0.1353
     11 N         141.2641  138.3362  157.9363 N.ar    1  UNL1       -0.2728
     12 C         139.7991  138.1629  157.6650 C.ar    1  UNL1        0.3517
     13 O         139.1981  137.4690  156.4787 O.2     1  UNL1       -0.2444
     14 N         139.0406  138.8055  158.7883 N.ar    1  UNL1       -0.1734
     15 C         140.0368  139.3759  159.7538 C.ar    1  UNL1        0.1662
     16 N         139.8702  140.1219  161.0443 N.ar    1  UNL1       -0.3071
     17 C         141.0778  140.5778  161.8084 C.ar    1  UNL1        0.2329
     18 N         142.4520  140.2877  161.2818 N.ar    1  UNL1       -0.1954
     19 C         142.6187  139.5417  159.9912 C.ar    1  UNL1        0.1475
     20 N         143.9930  139.2516  159.4647 N.pl3   1  UNL1       -0.3413
     21 C         141.4111  139.0858  159.2272 C.ar    1  UNL1        0.1296
     22 H         138.9682  140.3123  161.3900 H       1  UNL1        0.1703
     23 H         144.7856  139.5509  159.9661 H       1  UNL1        0.1438
     24 H         144.1023  138.7620  158.6176 H       1  UNL1        0.1438
     25 C         141.7990  142.2784  166.7550 C.3     1  UNL1        0.0762
     26 C         140.9423  141.9836  167.9505 C.ar    1  UNL1        0.0113
     27 C         140.7581  143.0233  169.0159 C.ar    1  UNL1       -0.0017
     28 C         139.9015  142.7285  170.2113 C.ar    1  UNL1       -0.0002
     29 C         139.2290  141.3940  170.3414 C.ar    1  UNL1        0.0023
     30 C         139.4132  140.3544  169.2761 C.ar    1  UNL1        0.0293
     31 C         140.2699  140.6491  168.0806 C.ar    1  UNL1        0.1365
     32 F         140.4541  139.6094  167.0151 F       1  UNL1       -0.2045
@<TRIPOS>BOND
     1    10    11    1
     2    11    12   ar
     3    12    13    2
     4    12    14   ar
     5    14    15   ar
     6    15    16   ar
     7    16    17   ar
     8    17     1    1
     9     1     2   ar
    10     2     3   ar
    11     3    25    1
    12    25    26    1
    13    26    27   ar
    14    27    28   ar
    15    28    29   ar
    16    29    30   ar
    17    30    31   ar
    18    31    32    1
    19     3     4   ar
    20     4     5   ar
    21     5     6   ar
    22     6     7   ar
    23     7     8   ar
    24     8     9   ar
    25    17    18   ar
    26    18    19   ar
    27    19    20    1
    28    19    21   ar
    29    21    11   ar
    30    21    15    1
    31     9     1   ar
    32    31    26   ar
    33     9     4   ar
    34    16    22    1
    35    20    23    1
    36    20    24    1
@<TRIPOS>MOLECULE
*****
 32 36 0 0 0
SMALL
GASTEIGER

@<TRIPOS>ATOM
      1 N         140.3020  140.3467  163.2560 N.ar    1  UNL1       -0.1982
      2 N         140.7805  141.6744  163.7643 N.ar    1  UNL1       -0.1667
      3 C         140.3937  141.7843  165.2094 C.ar    1  UNL1        0.0849
      4 C         139.6761  140.5245  165.5942 C.ar    1  UNL1        0.0334
      5 C         139.0669  140.0716  166.8880 C.ar    1  UNL1        0.0027
      6 C         138.4010  138.7304  166.9745 C.ar    1  UNL1        0.0001
      7 C         138.3443  137.8419  165.7672 C.ar    1  UNL1        0.0015
      8 C         138.9535  138.2948  164.4735 C.ar    1  UNL1        0.0193
      9 C         139.6194  139.6361  164.3870 C.ar    1  UNL1        0.0870
     10 C         140.4886  138.0954  156.5085 C.3     1  UNL1        0.1353
     11 N         141.2776  138.1567  157.7828 N.ar    1  UNL1       -0.2728
     12 C         142.6602  137.6132  157.9907 C.ar    1  UNL1        0.3517
     13 O         143.4964  136.9130  156.9609 O.2     1  UNL1       -0.2444
     14 N         143.0596  137.8929  159.4092 N.ar    1  UNL1       -0.1734
     15 C         141.9239  138.6092  160.0780 C.ar    1  UNL1        0.1662
     16 N         141.7504  139.1340  161.4724 N.ar    1  UNL1       -0.3071
     17 C         140.4756  139.8219  161.8616 C.ar    1  UNL1        0.2329
     18 N         139.3742  139.9849  160.8563 N.ar    1  UNL1       -0.1954
     19 C         139.5478  139.4601  159.4619 C.ar    1  UNL1        0.1475
     20 N         138.4464  139.6232  158.4567 N.pl3   1  UNL1       -0.3413
     21 C         140.8226  138.7722  159.0728 C.ar    1  UNL1        0.1296
     22 H         142.4733  139.0269  162.1322 H       1  UNL1        0.1703
     23 H         137.6097  140.0747  158.7121 H       1  UNL1        0.1438
     24 H         138.5603  139.2787  157.5415 H       1  UNL1        0.1438
     25 C         140.6751  142.9494  166.1113 C.3     1  UNL1        0.0762
     26 C         141.2418  142.7179  167.4807 C.ar    1  UNL1        0.0113
     27 C         140.4425  143.0866  168.6953 C.ar    1  UNL1       -0.0017
     28 C         141.0092  142.8552  170.0646 C.ar    1  UNL1       -0.0002
     29 C         142.3751  142.2551  170.2195 C.ar    1  UNL1        0.0023
     30 C         143.1744  141.8865  169.0050 C.ar    1  UNL1        0.0293
     31 C         142.6078  142.1179  167.6356 C.ar    1  UNL1        0.1365
     32 F         143.4071  141.7493  166.4210 F       1  UNL1       -0.2045
@<TRIPOS>BOND
     1    10    11    1
     2    11    12   ar
     3    12    13    2
     4    12    14   ar
     5    14    15   ar
     6    15    16   ar
     7    16    17   ar
     8    17     1    1
     9     1     2   ar
    10     2     3   ar
    11     3    25    1
    12    25    26    1
    13    26    27   ar
    14    27    28   ar
    15    28    29   ar
    16    29    30   ar
    17    30    31   ar
    18    31    32    1
    19     3     4   ar
    20     4     5   ar
    21     5     6   ar
    22     6     7   ar
    23     7     8   ar
    24     8     9   ar
    25    17    18   ar
    26    18    19   ar
    27    19    20    1
    28    19    21   ar
    29    21    11   ar
    30    21    15    1
    31     9     1   ar
    32    31    26   ar
    33     9     4   ar
    34    16    22    1
    35    20    23    1
    36    20    24    1
@<TRIPOS>MOLECULE
*****
 32 36 0 0 0
SMALL
GASTEIGER

@<TRIPOS>ATOM
      1 N         140.4928  142.5198  164.0217 N.ar    1  UNL1       -0.1982
      2 N         140.7484  143.3139  165.2684 N.ar    1  UNL1       -0.1667
      3 C         140.2463  142.5176  166.4362 C.ar    1  UNL1        0.0849
      4 C         139.6804  141.2314  165.9113 C.ar    1  UNL1        0.0334
      5 C         139.0461  140.0592  166.5993 C.ar    1  UNL1        0.0027
      6 C         138.5641  138.8884  165.7951 C.ar    1  UNL1        0.0001
      7 C         138.7164  138.8897  164.3028 C.ar    1  UNL1        0.0015
      8 C         139.3508  140.0620  163.6148 C.ar    1  UNL1        0.0193
      9 C         139.8328  141.2328  164.4190 C.ar    1  UNL1        0.0870
     10 C         142.6042  144.0090  157.3917 C.3     1  UNL1        0.1353
     11 N         141.6422  144.4094  158.4707 N.ar    1  UNL1       -0.2728
     12 C         140.6284  145.5115  158.3835 C.ar    1  UNL1        0.3517
     13 O         140.3986  146.4067  157.2021 O.2     1  UNL1       -0.2444
     14 N         139.8848  145.5612  159.6853 N.ar    1  UNL1       -0.1734
     15 C         140.4389  144.4898  160.5769 C.ar    1  UNL1        0.1662
     16 N         140.0948  144.0704  161.9754 N.ar    1  UNL1       -0.3071
     17 C         140.8369  142.9392  162.6232 C.ar    1  UNL1        0.2329
     18 N         141.9231  142.2274  161.8725 N.ar    1  UNL1       -0.1954
     19 C         142.2672  142.6467  160.4740 C.ar    1  UNL1        0.1475
     20 N         143.3533  141.9349  159.7234 N.pl3   1  UNL1       -0.3413
     21 C         141.5251  143.7779  159.8263 C.ar    1  UNL1        0.1296
     22 H         139.3819  144.5376  162.4680 H       1  UNL1        0.1703
     23 H         143.8404  141.1924  160.1486 H       1  UNL1        0.1438
     24 H         143.5792  142.2101  158.8055 H       1  UNL1        0.1438
     25 C         140.3006  142.9344  167.8761 C.3     1  UNL1        0.0762
     26 C         141.0944  142.1280  168.8608 C.ar    1  UNL1        0.0113
     27 C         142.5915  142.2202  168.8720 C.ar    1  UNL1       -0.0017
     28 C         143.3852  141.4138  169.8567 C.ar    1  UNL1       -0.0002
     29 C         142.6818  140.5152  170.8302 C.ar    1  UNL1        0.0023
     30 C         141.1848  140.4229  170.8190 C.ar    1  UNL1        0.0293
     31 C         140.3910  141.2293  169.8343 C.ar    1  UNL1        0.1365
     32 F         138.8939  141.1371  169.8231 F       1  UNL1       -0.2045
@<TRIPOS>BOND
     1    10    11    1
     2    11    12   ar
     3    12    13    2
     4    12    14   ar
     5    14    15   ar
     6    15    16   ar
     7    16    17   ar
     8    17     1    1
     9     1     2   ar
    10     2     3   ar
    11     3    25    1
    12    25    26    1
    13    26    27   ar
    14    27    28   ar
    15    28    29   ar
    16    29    30   ar
    17    30    31   ar
    18    31    32    1
    19     3     4   ar
    20     4     5   ar
    21     5     6   ar
    22     6     7   ar
    23     7     8   ar
    24     8     9   ar
    25    17    18   ar
    26    18    19   ar
    27    19    20    1
    28    19    21   ar
    29    21    11   ar
    30    21    15    1
    31     9     1   ar
    32    31    26   ar
    33     9     4   ar
    34    16    22    1
    35    20    23    1
    36    20    24    1
@<TRIPOS>MOLECULE
*****
 32 36 0 0 0
SMALL
GASTEIGER

@<TRIPOS>ATOM
      1 N         141.5808  143.9469  161.7359 N.ar    1  UNL1       -0.1982
      2 N         140.3358  143.9668  162.5723 N.ar    1  UNL1       -0.1667
      3 C         140.7070  143.5548  163.9660 C.ar    1  UNL1        0.0849
      4 C         142.1815  143.2803  163.9910 C.ar    1  UNL1        0.0334
      5 C         143.1021  142.8409  165.0907 C.ar    1  UNL1        0.0027
      6 C         144.5627  142.6440  164.8121 C.ar    1  UNL1        0.0001
      7 C         145.1029  142.8863  163.4338 C.ar    1  UNL1        0.0015
      8 C         144.1822  143.3257  162.3341 C.ar    1  UNL1        0.0193
      9 C         142.7215  143.5226  162.6127 C.ar    1  UNL1        0.0870
     10 C         142.5491  145.1555  154.7909 C.3     1  UNL1        0.1353
     11 N         141.6862  145.5028  155.9677 N.ar    1  UNL1       -0.2728
     12 C         140.5110  146.4349  155.9547 C.ar    1  UNL1        0.3517
     13 O         139.9924  147.1833  154.7627 O.2     1  UNL1       -0.2444
     14 N         139.9455  146.4871  157.3430 N.ar    1  UNL1       -0.1734
     15 C         140.7712  145.5873  158.2140 C.ar    1  UNL1        0.1662
     16 N         140.6825  145.2433  159.6713 N.ar    1  UNL1       -0.3071
     17 C         141.6695  144.2909  160.2786 C.ar    1  UNL1        0.2329
     18 N         142.7453  143.6826  159.4285 N.ar    1  UNL1       -0.1954
     19 C         142.8341  144.0266  157.9712 C.ar    1  UNL1        0.1475
     20 N         143.9099  143.4183  157.1211 N.pl3   1  UNL1       -0.3413
     21 C         141.8470  144.9789  157.3640 C.ar    1  UNL1        0.1296
     22 H         139.9764  145.6425  160.2292 H       1  UNL1        0.1703
     23 H         144.5577  142.7932  157.5197 H       1  UNL1        0.1438
     24 H         143.9681  143.6441  156.1647 H       1  UNL1        0.1438
     25 C         139.7685  143.4378  165.1303 C.3     1  UNL1        0.0762
     26 C         139.4566  142.0898  165.7096 C.ar    1  UNL1        0.0113
     27 C         138.5287  141.1591  164.9865 C.ar    1  UNL1       -0.0017
     28 C         138.2168  139.8112  165.5658 C.ar    1  UNL1       -0.0002
     29 C         138.8327  139.3939  166.8683 C.ar    1  UNL1        0.0023
     30 C         139.7605  140.3245  167.5915 C.ar    1  UNL1        0.0293
     31 C         140.0724  141.6725  167.0121 C.ar    1  UNL1        0.1365
     32 F         141.0003  142.6032  167.7353 F       1  UNL1       -0.2045
@<TRIPOS>BOND
     1    10    11    1
     2    11    12   ar
     3    12    13    2
     4    12    14   ar
     5    14    15   ar
     6    15    16   ar
     7    16    17   ar
     8    17     1    1
     9     1     2   ar
    10     2     3   ar
    11     3    25    1
    12    25    26    1
    13    26    27   ar
    14    27    28   ar
    15    28    29   ar
    16    29    30   ar
    17    30    31   ar
    18    31    32    1
    19     3     4   ar
    20     4     5   ar
    21     5     6   ar
    22     6     7   ar
    23     7     8   ar
    24     8     9   ar
    25    17    18   ar
    26    18    19   ar
    27    19    20    1
    28    19    21   ar
    29    21    11   ar
    30    21    15    1
    31     9     1   ar
    32    31    26   ar
    33     9     4   ar
    34    16    22    1
    35    20    23    1
    36    20    24    1
