@<TRIPOS>MOLECULE
*****
 31 34 0 0 0
SMALL
GASTEIGER

@<TRIPOS>ATOM
      1 C         142.0994  139.6861  162.6946 C.ar    1  UNL1        0.0541
      2 C         143.4779  139.1172  162.5330 C.ar    1  UNL1        0.0180
      3 C         144.1174  139.0747  161.1767 C.ar    1  UNL1        0.0382
      4 C         143.3785  139.6013  159.9823 C.ar    1  UNL1        0.1386
      5 C         142.0001  140.1702  160.1440 C.ar    1  UNL1        0.0382
      6 C         141.3605  140.2127  161.5001 C.ar    1  UNL1        0.0180
      7 O         138.2532  139.1271  168.3642 O.2     1  UNL1       -0.2699
      8 C         139.5412  139.8560  168.1192 C.2     1  UNL1        0.2495
      9 N         140.1807  139.8135  166.7631 N.am    1  UNL1       -0.2660
     10 C         141.4687  140.5423  166.5181 C.3     1  UNL1        0.1160
     11 C         142.1082  140.4999  165.1619 C.3     1  UNL1        0.1197
     12 N         141.4599  139.7286  164.0507 N.am    1  UNL1       -0.2555
     13 C         140.1719  138.9997  164.2957 C.2     1  UNL1        0.2497
     14 O         139.5235  138.2285  163.1846 O.2     1  UNL1       -0.2727
     15 C         139.5324  139.0422  165.6518 C.3     1  UNL1        0.1799
     16 C         140.1896  140.6273  169.2304 C.ar    1  UNL1        0.0567
     17 C         141.2514  139.9823  170.0709 C.ar    1  UNL1        0.0252
     18 C         141.8997  140.7536  171.1821 C.ar    1  UNL1        0.0990
     19 N         141.4862  142.1699  171.4528 N.ar    1  UNL1       -0.2423
     20 C         140.4243  142.8148  170.6122 C.ar    1  UNL1        0.0990
     21 C         139.7760  142.0435  169.5011 C.ar    1  UNL1        0.0252
     22 O         144.0181  139.5588  158.6262 O.3     1  UNL1       -0.4754
     23 C         144.0497  140.7921  157.7729 C.3     1  UNL1        0.2068
     24 C         144.6008  142.0729  158.3260 C.3     1  UNL1        0.0646
     25 C         143.6707  143.1166  158.8698 C.3     1  UNL1        0.0759
     26 N         143.4995  143.2697  160.3520 N.3     1  UNL1       -0.2726
     27 C         142.2535  143.8980  160.9022 C.3     1  UNL1        0.0721
     28 C         142.0824  144.0511  162.3846 C.3     1  UNL1        0.0174
     29 C         143.1572  143.5759  163.3167 C.3     1  UNL1        0.0029
     30 C         144.4032  142.9476  162.7665 C.3     1  UNL1        0.0174
     31 C         144.5744  142.7945  161.2843 C.3     1  UNL1        0.0721
@<TRIPOS>BOND
     1     7     8    2
     2     8    16    1
     3    16    17   ar
     4    17    18   ar
     5    18    19   ar
     6    19    20   ar
     7    20    21   ar
     8     8     9   am
     9     9    10    1
    10    10    11    1
    11    11    12    1
    12    12     1    1
    13     1     2   ar
    14     2     3   ar
    15     3     4   ar
    16     4    22    1
    17    22    23    1
    18    23    24    1
    19    24    25    1
    20    25    26    1
    21    26    27    1
    22    27    28    1
    23    28    29    1
    24    29    30    1
    25    30    31    1
    26     4     5   ar
    27     5     6   ar
    28    12    13   am
    29    13    14    2
    30    13    15    1
    31    21    16   ar
    32    15     9    1
    33     6     1   ar
    34    31    26    1
@<TRIPOS>MOLECULE
*****
 31 34 0 0 0
SMALL
GASTEIGER

@<TRIPOS>ATOM
      1 C         139.0496  139.5651  164.0872 C.ar    1  UNL1        0.0541
      2 C         139.5412  140.7607  164.8480 C.ar    1  UNL1        0.0180
      3 C         139.5006  140.7642  166.3475 C.ar    1  UNL1        0.0382
      4 C         138.9683  139.5721  167.0861 C.ar    1  UNL1        0.1386
      5 C         138.4767  138.3765  166.3253 C.ar    1  UNL1        0.0382
      6 C         138.5174  138.3729  164.8259 C.ar    1  UNL1        0.0180
      7 O         138.1875  140.3200  157.3096 O.2     1  UNL1       -0.2699
      8 C         139.2123  139.5509  158.0895 C.2     1  UNL1        0.2495
      9 N         139.1717  139.5544  159.5889 N.am    1  UNL1       -0.2660
     10 C         140.1965  138.7853  160.3688 C.3     1  UNL1        0.1160
     11 C         140.1558  138.7889  161.8683 C.3     1  UNL1        0.1197
     12 N         139.0903  139.5615  162.5878 N.am    1  UNL1       -0.2555
     13 C         138.0655  140.3306  161.8079 C.2     1  UNL1        0.2497
     14 O         137.0000  141.1033  162.5274 O.2     1  UNL1       -0.2727
     15 C         138.1062  140.3271  160.3085 C.3     1  UNL1        0.1799
     16 C         140.2778  138.7782  157.3699 C.ar    1  UNL1        0.0567
     17 C         139.9806  137.4075  156.8382 C.ar    1  UNL1        0.0252
     18 C         141.0461  136.6349  156.1187 C.ar    1  UNL1        0.0990
     19 N         142.4088  137.2330  155.9308 N.ar    1  UNL1       -0.2423
     20 C         142.7060  138.6037  156.4624 C.ar    1  UNL1        0.0990
     21 C         141.6405  139.3763  157.1819 C.ar    1  UNL1        0.0252
     22 O         138.9277  139.5756  168.5855 O.3     1  UNL1       -0.4754
     23 C         139.8237  140.4979  169.3579 C.3     1  UNL1        0.2068
     24 C         141.0087  139.9486  170.0956 C.3     1  UNL1        0.0646
     25 C         142.3976  140.2991  169.6506 C.3     1  UNL1        0.0759
     26 N         142.6930  140.4859  168.1919 N.3     1  UNL1       -0.2726
     27 C         142.7977  139.2927  167.2890 C.3     1  UNL1        0.0721
     28 C         143.0931  139.4795  165.8303 C.3     1  UNL1        0.0174
     29 C         143.2840  140.8596  165.2745 C.3     1  UNL1        0.0029
     30 C         143.1793  142.0528  166.1773 C.3     1  UNL1        0.0174
     31 C         142.8839  141.8660  167.6360 C.3     1  UNL1        0.0721
@<TRIPOS>BOND
     1     7     8    2
     2     8    16    1
     3    16    17   ar
     4    17    18   ar
     5    18    19   ar
     6    19    20   ar
     7    20    21   ar
     8     8     9   am
     9     9    10    1
    10    10    11    1
    11    11    12    1
    12    12     1    1
    13     1     2   ar
    14     2     3   ar
    15     3     4   ar
    16     4    22    1
    17    22    23    1
    18    23    24    1
    19    24    25    1
    20    25    26    1
    21    26    27    1
    22    27    28    1
    23    28    29    1
    24    29    30    1
    25    30    31    1
    26     4     5   ar
    27     5     6   ar
    28    12    13   am
    29    13    14    2
    30    13    15    1
    31    21    16   ar
    32    15     9    1
    33     6     1   ar
    34    31    26    1
@<TRIPOS>MOLECULE
*****
 31 34 0 0 0
SMALL
GASTEIGER

@<TRIPOS>ATOM
      1 C         139.8866  139.7546  162.7213 C.ar    1  UNL1        0.0541
      2 C         138.4131  139.5070  162.5891 C.ar    1  UNL1        0.0180
      3 C         137.7590  139.5751  161.2408 C.ar    1  UNL1        0.0382
      4 C         138.5785  139.8908  160.0248 C.ar    1  UNL1        0.1386
      5 C         140.0520  140.1384  160.1570 C.ar    1  UNL1        0.0382
      6 C         140.7061  140.0703  161.5052 C.ar    1  UNL1        0.0180
      7 O         143.4147  138.3393  168.4483 O.2     1  UNL1       -0.2699
      8 C         142.5026  139.4823  168.1140 C.2     1  UNL1        0.2495
      9 N         141.8486  139.5504  166.7658 N.am    1  UNL1       -0.2660
     10 C         140.9365  140.6933  166.4316 C.3     1  UNL1        0.1160
     11 C         140.2825  140.7614  165.0833 C.3     1  UNL1        0.1197
     12 N         140.5406  139.6865  164.0694 N.am    1  UNL1       -0.2555
     13 C         141.4527  138.5436  164.4037 C.2     1  UNL1        0.2497
     14 O         141.7108  137.4687  163.3898 O.2     1  UNL1       -0.2727
     15 C         142.1067  138.4755  165.7518 C.3     1  UNL1        0.1799
     16 C         142.2445  140.5572  169.1280 C.ar    1  UNL1        0.0567
     17 C         143.1474  141.7528  169.1998 C.ar    1  UNL1        0.0252
     18 C         142.8892  142.8276  170.2138 C.ar    1  UNL1        0.0990
     19 N         141.7283  142.7067  171.1559 N.ar    1  UNL1       -0.2423
     20 C         140.8254  141.5111  171.0840 C.ar    1  UNL1        0.0990
     21 C         141.0835  140.4363  170.0701 C.ar    1  UNL1        0.0252
     22 O         137.9245  139.9589  158.6767 O.3     1  UNL1       -0.4754
     23 C         138.2221  141.1049  157.7557 C.3     1  UNL1        0.2068
     24 C         138.0903  142.5159  158.2474 C.3     1  UNL1        0.0646
     25 C         139.3083  143.2748  158.6841 C.3     1  UNL1        0.0759
     26 N         139.3541  143.8993  160.0471 N.3     1  UNL1       -0.2726
     27 C         140.1351  145.1607  160.2683 C.3     1  UNL1        0.0721
     28 C         140.1809  145.7853  161.6314 C.3     1  UNL1        0.0174
     29 C         139.4457  145.1484  162.7732 C.3     1  UNL1        0.0029
     30 C         138.6647  143.8870  162.5521 C.3     1  UNL1        0.0174
     31 C         138.6189  143.2625  161.1891 C.3     1  UNL1        0.0721
@<TRIPOS>BOND
     1     7     8    2
     2     8    16    1
     3    16    17   ar
     4    17    18   ar
     5    18    19   ar
     6    19    20   ar
     7    20    21   ar
     8     8     9   am
     9     9    10    1
    10    10    11    1
    11    11    12    1
    12    12     1    1
    13     1     2   ar
    14     2     3   ar
    15     3     4   ar
    16     4    22    1
    17    22    23    1
    18    23    24    1
    19    24    25    1
    20    25    26    1
    21    26    27    1
    22    27    28    1
    23    28    29    1
    24    29    30    1
    25    30    31    1
    26     4     5   ar
    27     5     6   ar
    28    12    13   am
    29    13    14    2
    30    13    15    1
    31    21    16   ar
    32    15     9    1
    33     6     1   ar
    34    31    26    1
@<TRIPOS>MOLECULE
*****
 31 34 0 0 0
SMALL
GASTEIGER

@<TRIPOS>ATOM
      1 C         141.7328  139.0670  162.5668 C.ar    1  UNL1        0.0541
      2 C         142.8376  138.0776  162.3416 C.ar    1  UNL1        0.0180
      3 C         143.3879  137.8691  160.9618 C.ar    1  UNL1        0.0382
      4 C         142.8335  138.6500  159.8073 C.ar    1  UNL1        0.1386
      5 C         141.7288  139.6393  160.0325 C.ar    1  UNL1        0.0382
      6 C         141.1784  139.8479  161.4122 C.ar    1  UNL1        0.0180
      7 O         138.2357  139.2574  168.4815 O.2     1  UNL1       -0.2699
      8 C         139.5314  139.9011  168.0856 C.2     1  UNL1        0.2495
      9 N         140.0818  139.6926  166.7059 N.am    1  UNL1       -0.2660
     10 C         141.3775  140.3364  166.3101 C.3     1  UNL1        0.1160
     11 C         141.9278  140.1278  164.9303 C.3     1  UNL1        0.1197
     12 N         141.1825  139.2755  163.9465 N.am    1  UNL1       -0.2555
     13 C         139.8868  138.6318  164.3423 C.2     1  UNL1        0.2497
     14 O         139.1414  137.7795  163.3585 O.2     1  UNL1       -0.2727
     15 C         139.3364  138.8403  165.7220 C.3     1  UNL1        0.1799
     16 C         140.2768  140.7535  169.0695 C.ar    1  UNL1        0.0567
     17 C         140.1391  142.2464  169.0241 C.ar    1  UNL1        0.0252
     18 C         140.8844  143.0986  170.0080 C.ar    1  UNL1        0.0990
     19 N         141.7675  142.4579  171.0373 N.ar    1  UNL1       -0.2423
     20 C         141.9053  140.9650  171.0828 C.ar    1  UNL1        0.0990
     21 C         141.1599  140.1127  170.0989 C.ar    1  UNL1        0.0252
     22 O         143.3839  138.4415  158.4276 O.3     1  UNL1       -0.4754
     23 C         142.6379  137.5902  157.4433 C.3     1  UNL1        0.2068
     24 C         143.1823  137.3913  156.0598 C.3     1  UNL1        0.0646
     25 C         144.0513  136.2062  155.7589 C.3     1  UNL1        0.0759
     26 N         143.4691  134.8240  155.7826 N.3     1  UNL1       -0.2726
     27 C         142.6296  134.3441  154.6359 C.3     1  UNL1        0.0721
     28 C         142.0474  132.9618  154.6596 C.3     1  UNL1        0.0174
     29 C         142.3048  132.0596  155.8300 C.3     1  UNL1        0.0029
     30 C         143.1443  132.5396  156.9767 C.3     1  UNL1        0.0174
     31 C         143.7264  133.9217  156.9530 C.3     1  UNL1        0.0721
@<TRIPOS>BOND
     1     7     8    2
     2     8    16    1
     3    16    17   ar
     4    17    18   ar
     5    18    19   ar
     6    19    20   ar
     7    20    21   ar
     8     8     9   am
     9     9    10    1
    10    10    11    1
    11    11    12    1
    12    12     1    1
    13     1     2   ar
    14     2     3   ar
    15     3     4   ar
    16     4    22    1
    17    22    23    1
    18    23    24    1
    19    24    25    1
    20    25    26    1
    21    26    27    1
    22    27    28    1
    23    28    29    1
    24    29    30    1
    25    30    31    1
    26     4     5   ar
    27     5     6   ar
    28    12    13   am
    29    13    14    2
    30    13    15    1
    31    21    16   ar
    32    15     9    1
    33     6     1   ar
    34    31    26    1
@<TRIPOS>MOLECULE
*****
 31 34 0 0 0
SMALL
GASTEIGER

@<TRIPOS>ATOM
      1 C         140.4756  143.4073  162.7883 C.ar    1  UNL1        0.0541
      2 C         141.3227  142.8307  161.6928 C.ar    1  UNL1        0.0180
      3 C         141.5589  143.6146  160.4359 C.ar    1  UNL1        0.0382
      4 C         140.9479  144.9750  160.2744 C.ar    1  UNL1        0.1386
      5 C         140.1008  145.5516  161.3699 C.ar    1  UNL1        0.0382
      6 C         139.8646  144.7677  162.6268 C.ar    1  UNL1        0.0180
      7 O         138.5033  139.1796  167.8366 O.2     1  UNL1       -0.2699
      8 C         139.5310  140.2721  167.8159 C.2     1  UNL1        0.2495
      9 N         139.7671  141.0559  166.5590 N.am    1  UNL1       -0.2660
     10 C         140.7948  142.1483  166.5383 C.3     1  UNL1        0.1160
     11 C         141.0310  142.9321  165.2813 C.3     1  UNL1        0.1197
     12 N         140.2394  142.6235  164.0452 N.am    1  UNL1       -0.2555
     13 C         139.2117  141.5311  164.0659 C.2     1  UNL1        0.2497
     14 O         138.4202  141.2225  162.8297 O.2     1  UNL1       -0.2727
     15 C         138.9756  140.7473  165.3228 C.3     1  UNL1        0.1799
     16 C         140.3225  140.5807  169.0522 C.ar    1  UNL1        0.0567
     17 C         139.8454  141.6373  170.0040 C.ar    1  UNL1        0.0252
     18 C         140.6369  141.9458  171.2401 C.ar    1  UNL1        0.0990
     19 N         141.9056  141.1978  171.5246 N.ar    1  UNL1       -0.2423
     20 C         142.3827  140.1412  170.5728 C.ar    1  UNL1        0.0990
     21 C         141.5912  139.8326  169.3366 C.ar    1  UNL1        0.0252
     22 O         141.1841  145.7588  159.0175 O.3     1  UNL1       -0.4754
     23 C         140.1459  145.7710  157.9350 C.3     1  UNL1        0.2068
     24 C         140.5018  146.2531  156.5598 C.3     1  UNL1        0.0646
     25 C         139.4241  146.7175  155.6256 C.3     1  UNL1        0.0759
     26 N         139.2984  148.1742  155.2906 N.3     1  UNL1       -0.2726
     27 C         139.9385  148.7156  154.0467 C.3     1  UNL1        0.0721
     28 C         139.8127  150.1724  153.7117 C.3     1  UNL1        0.0174
     29 C         139.0470  151.0876  154.6205 C.3     1  UNL1        0.0029
     30 C         138.4069  150.5462  155.8644 C.3     1  UNL1        0.0174
     31 C         138.5326  149.0895  156.1994 C.3     1  UNL1        0.0721
@<TRIPOS>BOND
     1     7     8    2
     2     8    16    1
     3    16    17   ar
     4    17    18   ar
     5    18    19   ar
     6    19    20   ar
     7    20    21   ar
     8     8     9   am
     9     9    10    1
    10    10    11    1
    11    11    12    1
    12    12     1    1
    13     1     2   ar
    14     2     3   ar
    15     3     4   ar
    16     4    22    1
    17    22    23    1
    18    23    24    1
    19    24    25    1
    20    25    26    1
    21    26    27    1
    22    27    28    1
    23    28    29    1
    24    29    30    1
    25    30    31    1
    26     4     5   ar
    27     5     6   ar
    28    12    13   am
    29    13    14    2
    30    13    15    1
    31    21    16   ar
    32    15     9    1
    33     6     1   ar
    34    31    26    1
@<TRIPOS>MOLECULE
*****
 31 34 0 0 0
SMALL
GASTEIGER

@<TRIPOS>ATOM
      1 C         142.9405  140.5178  165.4481 C.ar    1  UNL1        0.0541
      2 C         142.8713  139.3153  166.3421 C.ar    1  UNL1        0.0180
      3 C         142.8753  139.4873  167.8322 C.ar    1  UNL1        0.0382
      4 C         142.9485  140.8618  168.4283 C.ar    1  UNL1        0.1386
      5 C         143.0177  142.0643  167.5343 C.ar    1  UNL1        0.0382
      6 C         143.0137  141.8923  166.0442 C.ar    1  UNL1        0.0180
      7 O         144.2177  139.8411  158.7279 O.2     1  UNL1       -0.2699
      8 C         142.9244  139.8297  159.4877 C.2     1  UNL1        0.2495
      9 N         142.9284  140.0017  160.9778 N.am    1  UNL1       -0.2660
     10 C         141.6351  139.9903  161.7376 C.3     1  UNL1        0.1160
     11 C         141.6392  140.1623  163.2277 C.3     1  UNL1        0.1197
     12 N         142.9365  140.3458  163.9580 N.am    1  UNL1       -0.2555
     13 C         144.2298  140.3572  163.1982 C.2     1  UNL1        0.2497
     14 O         145.5270  140.5406  163.9285 O.2     1  UNL1       -0.2727
     15 C         144.2258  140.1852  161.7082 C.3     1  UNL1        0.1799
     16 C         141.6271  139.6463  158.7574 C.ar    1  UNL1        0.0567
     17 C         141.1391  138.2661  158.4305 C.ar    1  UNL1        0.0252
     18 C         139.8418  138.0828  157.7002 C.ar    1  UNL1        0.0990
     19 N         139.0326  139.2796  157.2967 N.ar    1  UNL1       -0.2423
     20 C         139.5206  140.6597  157.6236 C.ar    1  UNL1        0.0990
     21 C         140.8179  140.8431  158.3539 C.ar    1  UNL1        0.0252
     22 O         142.9525  141.0338  169.9184 O.3     1  UNL1       -0.4754
     23 C         141.6603  141.0082  170.6798 C.3     1  UNL1        0.2068
     24 C         140.6387  139.9494  170.3879 C.3     1  UNL1        0.0646
     25 C         139.3030  140.3316  169.8222 C.3     1  UNL1        0.0759
     26 N         138.9674  139.9959  168.3993 N.3     1  UNL1       -0.2726
     27 C         139.5931  140.7714  167.2781 C.3     1  UNL1        0.0721
     28 C         139.2573  140.4357  165.8552 C.3     1  UNL1        0.0174
     29 C         138.2960  139.3246  165.5535 C.3     1  UNL1        0.0029
     30 C         137.6702  138.5491  166.6747 C.3     1  UNL1        0.0174
     31 C         138.0059  138.8847  168.0976 C.3     1  UNL1        0.0721
@<TRIPOS>BOND
     1     7     8    2
     2     8    16    1
     3    16    17   ar
     4    17    18   ar
     5    18    19   ar
     6    19    20   ar
     7    20    21   ar
     8     8     9   am
     9     9    10    1
    10    10    11    1
    11    11    12    1
    12    12     1    1
    13     1     2   ar
    14     2     3   ar
    15     3     4   ar
    16     4    22    1
    17    22    23    1
    18    23    24    1
    19    24    25    1
    20    25    26    1
    21    26    27    1
    22    27    28    1
    23    28    29    1
    24    29    30    1
    25    30    31    1
    26     4     5   ar
    27     5     6   ar
    28    12    13   am
    29    13    14    2
    30    13    15    1
    31    21    16   ar
    32    15     9    1
    33     6     1   ar
    34    31    26    1
@<TRIPOS>MOLECULE
*****
 31 34 0 0 0
SMALL
GASTEIGER

@<TRIPOS>ATOM
      1 C         139.7138  139.5987  159.7184 C.ar    1  UNL1        0.0541
      2 C         139.1995  138.7983  160.8781 C.ar    1  UNL1        0.0180
      3 C         138.2839  139.4349  161.8815 C.ar    1  UNL1        0.0382
      4 C         137.8826  140.8716  161.7250 C.ar    1  UNL1        0.1386
      5 C         138.3969  141.6720  160.5652 C.ar    1  UNL1        0.0382
      6 C         139.3124  141.0355  159.5620 C.ar    1  UNL1        0.0180
      7 O         144.8296  137.4221  155.6760 O.2     1  UNL1       -0.2699
      8 C         143.3761  137.0528  155.7052 C.2     1  UNL1        0.2495
      9 N         142.4605  137.6892  156.7085 N.am    1  UNL1       -0.2660
     10 C         141.0070  137.3199  156.7377 C.3     1  UNL1        0.1160
     11 C         140.0914  137.9564  157.7410 C.3     1  UNL1        0.1197
     12 N         140.6294  138.9622  158.7151 N.am    1  UNL1       -0.2555
     13 C         142.0829  139.3315  158.6860 C.2     1  UNL1        0.2497
     14 O         142.6208  140.3373  159.6601 O.2     1  UNL1       -0.2727
     15 C         142.9985  138.6951  157.6827 C.3     1  UNL1        0.1799
     16 C         142.8381  136.0469  154.7310 C.ar    1  UNL1        0.0567
     17 C         142.9620  134.5806  155.0218 C.ar    1  UNL1        0.0252
     18 C         142.4240  133.5749  154.0476 C.ar    1  UNL1        0.0990
     19 N         141.7623  134.0354  152.7827 N.ar    1  UNL1       -0.2423
     20 C         141.6384  135.5017  152.4920 C.ar    1  UNL1        0.0990
     21 C         142.1764  136.5075  153.4661 C.ar    1  UNL1        0.0252
     22 O         136.9670  141.5081  162.7283 O.3     1  UNL1       -0.4754
     23 C         137.5128  142.4826  163.7295 C.3     1  UNL1        0.2068
     24 C         138.9699  142.4557  164.0851 C.3     1  UNL1        0.0646
     25 C         139.4448  141.6247  165.2401 C.3     1  UNL1        0.0759
     26 N         139.6868  140.1557  165.0577 N.3     1  UNL1       -0.2726
     27 C         140.9834  139.6757  164.4761 C.3     1  UNL1        0.0721
     28 C         141.2254  138.2066  164.2938 C.3     1  UNL1        0.0174
     29 C         140.1708  137.2175  164.6931 C.3     1  UNL1        0.0029
     30 C         138.8741  137.6975  165.2747 C.3     1  UNL1        0.0174
     31 C         138.6321  139.1665  165.4570 C.3     1  UNL1        0.0721
@<TRIPOS>BOND
     1     7     8    2
     2     8    16    1
     3    16    17   ar
     4    17    18   ar
     5    18    19   ar
     6    19    20   ar
     7    20    21   ar
     8     8     9   am
     9     9    10    1
    10    10    11    1
    11    11    12    1
    12    12     1    1
    13     1     2   ar
    14     2     3   ar
    15     3     4   ar
    16     4    22    1
    17    22    23    1
    18    23    24    1
    19    24    25    1
    20    25    26    1
    21    26    27    1
    22    27    28    1
    23    28    29    1
    24    29    30    1
    25    30    31    1
    26     4     5   ar
    27     5     6   ar
    28    12    13   am
    29    13    14    2
    30    13    15    1
    31    21    16   ar
    32    15     9    1
    33     6     1   ar
    34    31    26    1
@<TRIPOS>MOLECULE
*****
 31 34 0 0 0
SMALL
GASTEIGER

@<TRIPOS>ATOM
      1 C         139.9815  140.3603  159.6735 C.ar    1  UNL1        0.0541
      2 C         139.7811  139.8883  161.0832 C.ar    1  UNL1        0.0180
      3 C         138.9062  140.6692  162.0184 C.ar    1  UNL1        0.0382
      4 C         138.2316  141.9222  161.5440 C.ar    1  UNL1        0.1386
      5 C         138.4320  142.3942  160.1344 C.ar    1  UNL1        0.0382
      6 C         139.3069  141.6133  159.1992 C.ar    1  UNL1        0.0180
      7 O         144.8969  137.6700  155.6923 O.2     1  UNL1       -0.2699
      8 C         143.4811  137.2367  155.9325 C.2     1  UNL1        0.2495
      9 N         142.6062  138.0176  156.8678 N.am    1  UNL1       -0.2660
     10 C         141.1904  137.5842  157.1080 C.3     1  UNL1        0.1160
     11 C         140.3155  138.3652  158.0433 C.3     1  UNL1        0.1197
     12 N         140.8564  139.5794  158.7383 N.am    1  UNL1       -0.2555
     13 C         142.2722  140.0127  158.4980 C.2     1  UNL1        0.2497
     14 O         142.8131  141.2270  159.1930 O.2     1  UNL1       -0.2727
     15 C         143.1471  139.2319  157.5628 C.3     1  UNL1        0.1799
     16 C         142.9402  136.0224  155.2375 C.ar    1  UNL1        0.0567
     17 C         142.9648  134.6904  155.9268 C.ar    1  UNL1        0.0252
     18 C         142.4239  133.4762  155.2318 C.ar    1  UNL1        0.0990
     19 N         141.8584  133.5940  153.8474 N.ar    1  UNL1       -0.2423
     20 C         141.8338  134.9260  153.1581 C.ar    1  UNL1        0.0990
     21 C         142.3747  136.1401  153.8532 C.ar    1  UNL1        0.0252
     22 O         137.3567  142.7031  162.4793 O.3     1  UNL1       -0.4754
     23 C         137.6822  142.7558  163.9426 C.3     1  UNL1        0.2068
     24 C         137.9879  144.0710  164.5961 C.3     1  UNL1        0.0646
     25 C         139.3553  144.6735  164.4653 C.3     1  UNL1        0.0759
     26 N         140.0581  144.6581  163.1403 N.3     1  UNL1       -0.2726
     27 C         141.1873  143.7000  162.9013 C.3     1  UNL1        0.0721
     28 C         141.8901  143.6847  161.5762 C.3     1  UNL1        0.0174
     29 C         141.4637  144.6274  160.4901 C.3     1  UNL1        0.0029
     30 C         140.3346  145.5854  160.7291 C.3     1  UNL1        0.0174
     31 C         139.6318  145.6008  162.0542 C.3     1  UNL1        0.0721
@<TRIPOS>BOND
     1     7     8    2
     2     8    16    1
     3    16    17   ar
     4    17    18   ar
     5    18    19   ar
     6    19    20   ar
     7    20    21   ar
     8     8     9   am
     9     9    10    1
    10    10    11    1
    11    11    12    1
    12    12     1    1
    13     1     2   ar
    14     2     3   ar
    15     3     4   ar
    16     4    22    1
    17    22    23    1
    18    23    24    1
    19    24    25    1
    20    25    26    1
    21    26    27    1
    22    27    28    1
    23    28    29    1
    24    29    30    1
    25    30    31    1
    26     4     5   ar
    27     5     6   ar
    28    12    13   am
    29    13    14    2
    30    13    15    1
    31    21    16   ar
    32    15     9    1
    33     6     1   ar
    34    31    26    1
@<TRIPOS>MOLECULE
*****
 31 34 0 0 0
SMALL
GASTEIGER

@<TRIPOS>ATOM
      1 C         142.7141  141.5103  162.6522 C.ar    1  UNL1        0.0541
      2 C         143.6396  142.6255  162.2652 C.ar    1  UNL1        0.0180
      3 C         143.6438  143.1422  160.8570 C.ar    1  UNL1        0.0382
      4 C         142.7226  142.5435  159.8357 C.ar    1  UNL1        0.1386
      5 C         141.7972  141.4282  160.2226 C.ar    1  UNL1        0.0382
      6 C         141.7929  140.9116  161.6308 C.ar    1  UNL1        0.0180
      7 O         143.3499  138.1316  168.6045 O.2     1  UNL1       -0.2699
      8 C         142.6970  139.4437  168.2850 C.2     1  UNL1        0.2495
      9 N         142.7013  139.9604  166.8768 N.am    1  UNL1       -0.2660
     10 C         142.0485  141.2725  166.5573 C.3     1  UNL1        0.1160
     11 C         142.0528  141.7891  165.1490 C.3     1  UNL1        0.1197
     12 N         142.7099  140.9936  164.0603 N.am    1  UNL1       -0.2555
     13 C         143.3627  139.6815  164.3798 C.2     1  UNL1        0.2497
     14 O         144.0198  138.8860  163.2911 O.2     1  UNL1       -0.2727
     15 C         143.3584  139.1648  165.7880 C.3     1  UNL1        0.1799
     16 C         142.0399  140.2393  169.3738 C.ar    1  UNL1        0.0567
     17 C         140.6562  139.8844  169.8312 C.ar    1  UNL1        0.0252
     18 C         139.9991  140.6799  170.9200 C.ar    1  UNL1        0.0990
     19 N         140.7258  141.8303  171.5512 N.ar    1  UNL1       -0.2423
     20 C         142.1095  142.1852  171.0938 C.ar    1  UNL1        0.0990
     21 C         142.7666  141.3897  170.0050 C.ar    1  UNL1        0.0252
     22 O         142.7269  143.0601  158.4275 O.3     1  UNL1       -0.4754
     23 C         142.2047  144.4348  158.1314 C.3     1  UNL1        0.2068
     24 C         141.3405  145.1408  159.1337 C.3     1  UNL1        0.0646
     25 C         139.9753  144.6082  159.4542 C.3     1  UNL1        0.0759
     26 N         139.6404  144.1991  160.8578 N.3     1  UNL1       -0.2726
     27 C         138.5546  143.1947  161.1074 C.3     1  UNL1        0.0721
     28 C         138.2197  142.7855  162.5112 C.3     1  UNL1        0.0174
     29 C         138.9705  143.3807  163.6653 C.3     1  UNL1        0.0029
     30 C         140.0563  144.3851  163.4157 C.3     1  UNL1        0.0174
     31 C         140.3912  144.7943  162.0120 C.3     1  UNL1        0.0721
@<TRIPOS>BOND
     1     7     8    2
     2     8    16    1
     3    16    17   ar
     4    17    18   ar
     5    18    19   ar
     6    19    20   ar
     7    20    21   ar
     8     8     9   am
     9     9    10    1
    10    10    11    1
    11    11    12    1
    12    12     1    1
    13     1     2   ar
    14     2     3   ar
    15     3     4   ar
    16     4    22    1
    17    22    23    1
    18    23    24    1
    19    24    25    1
    20    25    26    1
    21    26    27    1
    22    27    28    1
    23    28    29    1
    24    29    30    1
    25    30    31    1
    26     4     5   ar
    27     5     6   ar
    28    12    13   am
    29    13    14    2
    30    13    15    1
    31    21    16   ar
    32    15     9    1
    33     6     1   ar
    34    31    26    1
