@<TRIPOS>MOLECULE
*****
 36 39 0 0 0
SMALL
GASTEIGER

@<TRIPOS>ATOM
      1 C         139.0045  138.7539  163.1516 C.ar    1  UNL1        0.0207
      2 C         139.9652  138.0689  162.2254 C.ar    1  UNL1        0.0016
      3 C         139.9051  138.3365  160.7506 C.ar    1  UNL1        0.0000
      4 C         138.8843  139.2890  160.2022 C.ar    1  UNL1        0.0000
      5 C         137.9236  139.9739  161.1285 C.ar    1  UNL1        0.0000
      6 C         137.9837  139.7063  162.6032 C.ar    1  UNL1        0.0016
      7 C         138.8242  139.5566  158.7275 C.ar    1  UNL1        0.0000
      8 C         138.0308  140.7186  158.2078 C.ar    1  UNL1        0.0000
      9 C         137.9707  140.9862  156.7331 C.ar    1  UNL1        0.0000
     10 C         138.7040  140.0918  155.7780 C.ar    1  UNL1        0.0016
     11 C         139.4975  138.9297  156.2977 C.ar    1  UNL1        0.0207
     12 C         139.5576  138.6621  157.7724 C.ar    1  UNL1        0.0016
     13 C         140.2308  138.0352  155.3427 C.2     1  UNL1        0.1175
     14 N         140.0518  136.5479  155.4203 N.2     1  UNL1       -0.1798
     15 N         140.7852  135.6534  154.4652 N.pl3   1  UNL1       -0.2359
     16 H         140.5628  135.6695  153.5063 H       1  UNL1        0.1744
     17 C         141.8573  134.7344  154.9712 C.ar    1  UNL1        0.0652
     18 C         142.6353  135.0955  156.2017 C.ar    1  UNL1        0.0192
     19 C         143.7075  134.1765  156.7077 C.ar    1  UNL1        0.0382
     20 C         144.0016  132.8965  155.9831 C.ar    1  UNL1        0.1388
     21 C         143.2235  132.5354  154.7525 C.ar    1  UNL1        0.0382
     22 C         142.1514  133.4544  154.2466 C.ar    1  UNL1        0.0192
     23 O         145.0737  131.9775  156.4891 O.3     1  UNL1       -0.4714
     24 C         145.4417  131.9832  157.9433 C.3     1  UNL1        0.2525
     25 N         138.4671  139.4670  165.5915 N.2     1  UNL1       -0.1798
     26 C         139.0645  138.4863  164.6264 C.2     1  UNL1        0.1175
     27 N         138.5271  139.1995  167.0662 N.pl3   1  UNL1       -0.2359
     28 H         138.0802  138.4065  167.4412 H       1  UNL1        0.1744
     29 C         140.7500  142.0216  169.7762 C.ar    1  UNL1        0.1388
     30 C         139.7846  141.0303  170.3551 C.ar    1  UNL1        0.0382
     31 C         139.0436  140.0896  169.4517 C.ar    1  UNL1        0.0192
     32 C         139.2681  140.1402  167.9695 C.ar    1  UNL1        0.0652
     33 C         140.2335  141.1315  167.3906 C.ar    1  UNL1        0.0192
     34 C         140.9745  142.0722  168.2940 C.ar    1  UNL1        0.0382
     35 C         142.9718  143.1423  170.5228 C.3     1  UNL1        0.2525
     36 O         141.4910  142.9623  170.6795 O.3     1  UNL1       -0.4714
@<TRIPOS>BOND
     1    35    36    1
     2    36    29    1
     3    29    30   ar
     4    30    31   ar
     5    31    32   ar
     6    32    27    1
     7    27    25    1
     8    25    26    2
     9    26     1    1
    10     1     2   ar
    11     2     3   ar
    12     3     4   ar
    13     4     7    1
    14     7     8   ar
    15     8     9   ar
    16     9    10   ar
    17    10    11   ar
    18    11    13    1
    19    13    14    2
    20    14    15    1
    21    15    17    1
    22    17    18   ar
    23    18    19   ar
    24    19    20   ar
    25    20    23    1
    26    23    24    1
    27    20    21   ar
    28    21    22   ar
    29    11    12   ar
    30     4     5   ar
    31     5     6   ar
    32    32    33   ar
    33    33    34   ar
    34    34    29   ar
    35     6     1   ar
    36    12     7   ar
    37    22    17   ar
    38    27    28    1
    39    15    16    1
@<TRIPOS>MOLECULE
*****
 36 39 0 0 0
SMALL
GASTEIGER

@<TRIPOS>ATOM
      1 C         141.0576  138.4816  158.6889 C.ar    1  UNL1        0.0207
      2 C         141.8656  138.7977  159.9125 C.ar    1  UNL1        0.0016
      3 C         141.2654  139.6166  161.0168 C.ar    1  UNL1        0.0000
      4 C         139.8572  140.1193  160.8974 C.ar    1  UNL1        0.0000
      5 C         139.0492  139.8031  159.6737 C.ar    1  UNL1        0.0000
      6 C         139.6494  138.9843  158.5695 C.ar    1  UNL1        0.0016
      7 C         139.2570  140.9381  162.0015 C.ar    1  UNL1        0.0000
      8 C         138.2190  141.9744  161.6876 C.ar    1  UNL1        0.0000
      9 C         137.6187  142.7933  162.7918 C.ar    1  UNL1        0.0000
     10 C         138.0565  142.5758  164.2099 C.ar    1  UNL1        0.0016
     11 C         139.0945  141.5394  164.5238 C.ar    1  UNL1        0.0207
     12 C         139.6947  140.7206  163.4197 C.ar    1  UNL1        0.0016
     13 C         139.5322  141.3219  165.9419 C.2     1  UNL1        0.1175
     14 N         139.0654  140.1105  166.6935 N.2     1  UNL1       -0.1798
     15 N         139.5032  139.8930  168.1117 N.pl3   1  UNL1       -0.2359
     16 H         139.1095  139.1628  168.6418 H       1  UNL1        0.1744
     17 C         140.5407  140.7880  168.7220 C.ar    1  UNL1        0.0652
     18 C         140.1216  141.9560  169.5647 C.ar    1  UNL1        0.0192
     19 C         141.1592  142.8510  170.1751 C.ar    1  UNL1        0.0382
     20 C         142.6157  142.5781  169.9427 C.ar    1  UNL1        0.1388
     21 C         143.0347  141.4100  169.0999 C.ar    1  UNL1        0.0382
     22 C         141.9972  140.5150  168.4896 C.ar    1  UNL1        0.0192
     23 O         143.6532  143.4730  170.5530 O.3     1  UNL1       -0.4714
     24 C         145.1098  143.1995  170.3214 C.3     1  UNL1        0.2525
     25 N         143.1448  137.6434  157.3885 N.2     1  UNL1       -0.1798
     26 C         141.6578  137.6627  157.5847 C.2     1  UNL1        0.1175
     27 N         143.7450  136.8246  156.2843 N.pl3   1  UNL1       -0.2359
     28 H         144.4026  137.2289  155.6733 H       1  UNL1        0.1744
     29 C         142.5399  132.5202  155.7646 C.ar    1  UNL1        0.1388
     30 C         143.1301  132.9822  157.0639 C.ar    1  UNL1        0.0382
     31 C         143.5318  134.4170  157.2371 C.ar    1  UNL1        0.0192
     32 C         143.3433  135.3898  156.1111 C.ar    1  UNL1        0.0652
     33 C         142.7531  134.9278  154.8118 C.ar    1  UNL1        0.0192
     34 C         142.3514  133.4930  154.6385 C.ar    1  UNL1        0.0382
     35 C         141.2296  130.6918  154.4647 C.3     1  UNL1        0.2525
     36 O         142.1382  131.0854  155.5913 O.3     1  UNL1       -0.4714
@<TRIPOS>BOND
     1    35    36    1
     2    36    29    1
     3    29    30   ar
     4    30    31   ar
     5    31    32   ar
     6    32    27    1
     7    27    25    1
     8    25    26    2
     9    26     1    1
    10     1     2   ar
    11     2     3   ar
    12     3     4   ar
    13     4     7    1
    14     7     8   ar
    15     8     9   ar
    16     9    10   ar
    17    10    11   ar
    18    11    13    1
    19    13    14    2
    20    14    15    1
    21    15    17    1
    22    17    18   ar
    23    18    19   ar
    24    19    20   ar
    25    20    23    1
    26    23    24    1
    27    20    21   ar
    28    21    22   ar
    29    11    12   ar
    30     4     5   ar
    31     5     6   ar
    32    32    33   ar
    33    33    34   ar
    34    34    29   ar
    35     6     1   ar
    36    12     7   ar
    37    22    17   ar
    38    27    28    1
    39    15    16    1
@<TRIPOS>MOLECULE
*****
 36 39 0 0 0
SMALL
GASTEIGER

@<TRIPOS>ATOM
      1 C         142.2214  138.3269  163.7331 C.ar    1  UNL1        0.0207
      2 C         141.0405  137.8770  162.9251 C.ar    1  UNL1        0.0016
      3 C         141.0725  137.9796  161.4289 C.ar    1  UNL1        0.0000
      4 C         142.2854  138.5320  160.7408 C.ar    1  UNL1        0.0000
      5 C         143.4664  138.9819  161.5489 C.ar    1  UNL1        0.0000
      6 C         143.4344  138.8794  163.0450 C.ar    1  UNL1        0.0016
      7 C         142.3175  138.6346  159.2447 C.ar    1  UNL1        0.0000
      8 C         141.8685  139.8967  158.5697 C.ar    1  UNL1        0.0000
      9 C         141.9006  139.9993  157.0735 C.ar    1  UNL1        0.0000
     10 C         142.3815  138.8398  156.2524 C.ar    1  UNL1        0.0016
     11 C         142.8305  137.5777  156.9274 C.ar    1  UNL1        0.0207
     12 C         142.7985  137.4751  158.4236 C.ar    1  UNL1        0.0016
     13 C         143.3115  136.4182  156.1063 C.2     1  UNL1        0.1175
     14 N         143.6728  135.1247  156.7744 N.2     1  UNL1       -0.1798
     15 N         144.1538  133.9652  155.9533 N.pl3   1  UNL1       -0.2359
     16 H         144.5481  134.1212  155.0648 H       1  UNL1        0.1744
     17 C         144.0340  132.5681  156.4858 C.ar    1  UNL1        0.0652
     18 C         143.0077  131.6340  155.9165 C.ar    1  UNL1        0.0192
     19 C         142.8879  130.2368  156.4491 C.ar    1  UNL1        0.0382
     20 C         143.7943  129.7738  157.5509 C.ar    1  UNL1        0.1388
     21 C         144.8206  130.7080  158.1202 C.ar    1  UNL1        0.0382
     22 C         144.9404  132.1051  157.5877 C.ar    1  UNL1        0.0192
     23 O         143.6745  128.3767  158.0835 O.3     1  UNL1       -0.4714
     24 C         142.6824  127.4267  157.4806 C.3     1  UNL1        0.2525
     25 N         143.3843  138.6399  166.0353 N.2     1  UNL1       -0.1798
     26 C         142.1894  138.2244  165.2293 C.2     1  UNL1        0.1175
     27 N         143.3524  138.5374  167.5314 N.pl3   1  UNL1       -0.2359
     28 H         143.7600  137.7619  167.9805 H       1  UNL1        0.1744
     29 C         141.3932  141.7744  169.9672 C.ar    1  UNL1        0.1388
     30 C         141.7127  142.0132  168.5213 C.ar    1  UNL1        0.0382
     31 C         142.3657  140.9342  167.7093 C.ar    1  UNL1        0.0192
     32 C         142.6993  139.6164  168.3433 C.ar    1  UNL1        0.0652
     33 C         142.3799  139.3776  169.7893 C.ar    1  UNL1        0.0192
     34 C         141.7268  140.4566  170.6013 C.ar    1  UNL1        0.0382
     35 C         140.5160  144.2105  170.1809 C.3     1  UNL1        0.2525
     36 O         140.7402  142.8534  170.7792 O.3     1  UNL1       -0.4714
@<TRIPOS>BOND
     1    35    36    1
     2    36    29    1
     3    29    30   ar
     4    30    31   ar
     5    31    32   ar
     6    32    27    1
     7    27    25    1
     8    25    26    2
     9    26     1    1
    10     1     2   ar
    11     2     3   ar
    12     3     4   ar
    13     4     7    1
    14     7     8   ar
    15     8     9   ar
    16     9    10   ar
    17    10    11   ar
    18    11    13    1
    19    13    14    2
    20    14    15    1
    21    15    17    1
    22    17    18   ar
    23    18    19   ar
    24    19    20   ar
    25    20    23    1
    26    23    24    1
    27    20    21   ar
    28    21    22   ar
    29    11    12   ar
    30     4     5   ar
    31     5     6   ar
    32    32    33   ar
    33    33    34   ar
    34    34    29   ar
    35     6     1   ar
    36    12     7   ar
    37    22    17   ar
    38    27    28    1
    39    15    16    1
@<TRIPOS>MOLECULE
*****
 36 39 0 0 0
SMALL
GASTEIGER

@<TRIPOS>ATOM
      1 C         140.4170  138.1008  161.7424 C.ar    1  UNL1        0.0207
      2 C         141.8852  137.7937  161.7328 C.ar    1  UNL1        0.0016
      3 C         142.6496  137.8251  160.4425 C.ar    1  UNL1        0.0000
      4 C         141.9458  138.1636  159.1619 C.ar    1  UNL1        0.0000
      5 C         140.4775  138.4707  159.1715 C.ar    1  UNL1        0.0000
      6 C         139.7132  138.4393  160.4618 C.ar    1  UNL1        0.0016
      7 C         142.7101  138.1951  157.8717 C.ar    1  UNL1        0.0000
      8 C         142.9076  136.9327  157.0860 C.ar    1  UNL1        0.0000
      9 C         143.6719  136.9640  155.7957 C.ar    1  UNL1        0.0000
     10 C         144.2389  138.2579  155.2912 C.ar    1  UNL1        0.0016
     11 C         144.0414  139.5203  156.0769 C.ar    1  UNL1        0.0207
     12 C         143.2770  139.4889  157.3671 C.ar    1  UNL1        0.0016
     13 C         144.6083  140.8142  155.5723 C.2     1  UNL1        0.1175
     14 N         145.7699  141.4497  156.2774 N.2     1  UNL1       -0.1798
     15 N         146.3368  142.7435  155.7728 N.pl3   1  UNL1       -0.2359
     16 H         145.8562  143.5875  155.9337 H       1  UNL1        0.1744
     17 C         147.6359  142.7514  155.0231 C.ar    1  UNL1        0.0652
     18 C         148.7720  141.8863  155.4822 C.ar    1  UNL1        0.0192
     19 C         150.0713  141.8942  154.7324 C.ar    1  UNL1        0.0382
     20 C         150.2343  142.7671  153.5236 C.ar    1  UNL1        0.1388
     21 C         149.0981  143.6322  153.0645 C.ar    1  UNL1        0.0382
     22 C         147.7990  143.6244  153.8142 C.ar    1  UNL1        0.0192
     23 O         151.5334  142.7750  152.7738 O.3     1  UNL1       -0.4714
     24 C         152.3356  144.0388  152.6766 C.3     1  UNL1        0.2525
     25 N         139.4933  139.3230  163.8408 N.2     1  UNL1       -0.1798
     26 C         139.6526  138.0693  163.0327 C.2     1  UNL1        0.1175
     27 N         138.7289  139.2916  165.1310 N.pl3   1  UNL1       -0.2359
     28 H         137.9009  138.7635  165.1998 H       1  UNL1        0.1744
     29 C         140.2204  141.6113  168.6869 C.ar    1  UNL1        0.1388
     30 C         140.4833  142.1152  167.2988 C.ar    1  UNL1        0.0382
     31 C         139.9861  141.3420  166.1135 C.ar    1  UNL1        0.0192
     32 C         139.2261  140.0648  166.3163 C.ar    1  UNL1        0.0652
     33 C         138.9632  139.5609  167.7044 C.ar    1  UNL1        0.0192
     34 C         139.4604  140.3341  168.8897 C.ar    1  UNL1        0.0382
     35 C         140.5797  143.8778  169.9050 C.3     1  UNL1        0.2525
     36 O         140.7176  142.3845  169.8722 O.3     1  UNL1       -0.4714
@<TRIPOS>BOND
     1    35    36    1
     2    36    29    1
     3    29    30   ar
     4    30    31   ar
     5    31    32   ar
     6    32    27    1
     7    27    25    1
     8    25    26    2
     9    26     1    1
    10     1     2   ar
    11     2     3   ar
    12     3     4   ar
    13     4     7    1
    14     7     8   ar
    15     8     9   ar
    16     9    10   ar
    17    10    11   ar
    18    11    13    1
    19    13    14    2
    20    14    15    1
    21    15    17    1
    22    17    18   ar
    23    18    19   ar
    24    19    20   ar
    25    20    23    1
    26    23    24    1
    27    20    21   ar
    28    21    22   ar
    29    11    12   ar
    30     4     5   ar
    31     5     6   ar
    32    32    33   ar
    33    33    34   ar
    34    34    29   ar
    35     6     1   ar
    36    12     7   ar
    37    22    17   ar
    38    27    28    1
    39    15    16    1
@<TRIPOS>MOLECULE
*****
 36 39 0 0 0
SMALL
GASTEIGER

@<TRIPOS>ATOM
      1 C         141.9685  137.2367  157.3452 C.ar    1  UNL1        0.0207
      2 C         142.6031  137.8123  158.5764 C.ar    1  UNL1        0.0016
      3 C         141.8668  138.8333  159.3923 C.ar    1  UNL1        0.0000
      4 C         140.4959  139.2785  158.9770 C.ar    1  UNL1        0.0000
      5 C         139.8614  138.7029  157.7457 C.ar    1  UNL1        0.0000
      6 C         140.5976  137.6820  156.9298 C.ar    1  UNL1        0.0016
      7 C         139.7597  140.2994  159.7928 C.ar    1  UNL1        0.0000
      8 C         139.1633  141.5037  159.1265 C.ar    1  UNL1        0.0000
      9 C         138.4270  142.5246  159.9424 C.ar    1  UNL1        0.0000
     10 C         138.2871  142.3412  161.4246 C.ar    1  UNL1        0.0016
     11 C         138.8835  141.1369  162.0909 C.ar    1  UNL1        0.0207
     12 C         139.6198  140.1160  161.2750 C.ar    1  UNL1        0.0016
     13 C         138.7436  140.9535  163.5730 C.2     1  UNL1        0.1175
     14 N         138.3996  139.6049  164.1327 N.2     1  UNL1       -0.1798
     15 N         138.2597  139.4215  165.6148 N.pl3   1  UNL1       -0.2359
     16 H         137.3808  139.2079  166.0036 H       1  UNL1        0.1744
     17 C         139.4588  139.5636  166.5046 C.ar    1  UNL1        0.0652
     18 C         139.2842  139.9584  167.9411 C.ar    1  UNL1        0.0192
     19 C         140.4834  140.1004  168.8310 C.ar    1  UNL1        0.0382
     20 C         141.8572  139.8477  168.2843 C.ar    1  UNL1        0.1388
     21 C         142.0317  139.4529  166.8477 C.ar    1  UNL1        0.0382
     22 C         140.8326  139.3108  165.9579 C.ar    1  UNL1        0.0192
     23 O         143.0563  139.9898  169.1741 O.3     1  UNL1       -0.4714
     24 C         143.2870  141.2687  169.9234 C.3     1  UNL1        0.2525
     25 N         143.4044  135.0758  157.2082 N.2     1  UNL1       -0.1798
     26 C         142.7048  136.2158  156.5292 C.2     1  UNL1        0.1175
     27 N         144.1407  134.0549  156.3923 N.pl3   1  UNL1       -0.2359
     28 H         144.6857  134.3393  155.6233 H       1  UNL1        0.1744
     29 C         143.8584  129.6925  157.4597 C.ar    1  UNL1        0.1388
     30 C         142.9042  130.2846  156.4654 C.ar    1  UNL1        0.0382
     31 C         142.9982  131.7387  156.1096 C.ar    1  UNL1        0.0192
     32 C         144.0466  132.6008  156.7481 C.ar    1  UNL1        0.0652
     33 C         145.0009  132.0087  157.7424 C.ar    1  UNL1        0.0192
     34 C         144.9068  130.5545  158.0982 C.ar    1  UNL1        0.0382
     35 C         144.9009  127.5650  158.5260 C.3     1  UNL1        0.2525
     36 O         143.7644  128.2383  157.8155 O.3     1  UNL1       -0.4714
@<TRIPOS>BOND
     1    35    36    1
     2    36    29    1
     3    29    30   ar
     4    30    31   ar
     5    31    32   ar
     6    32    27    1
     7    27    25    1
     8    25    26    2
     9    26     1    1
    10     1     2   ar
    11     2     3   ar
    12     3     4   ar
    13     4     7    1
    14     7     8   ar
    15     8     9   ar
    16     9    10   ar
    17    10    11   ar
    18    11    13    1
    19    13    14    2
    20    14    15    1
    21    15    17    1
    22    17    18   ar
    23    18    19   ar
    24    19    20   ar
    25    20    23    1
    26    23    24    1
    27    20    21   ar
    28    21    22   ar
    29    11    12   ar
    30     4     5   ar
    31     5     6   ar
    32    32    33   ar
    33    33    34   ar
    34    34    29   ar
    35     6     1   ar
    36    12     7   ar
    37    22    17   ar
    38    27    28    1
    39    15    16    1
@<TRIPOS>MOLECULE
*****
 36 39 0 0 0
SMALL
GASTEIGER

@<TRIPOS>ATOM
      1 C         135.8895  141.3301  155.7680 C.ar    1  UNL1        0.0207
      2 C         136.8175  140.9212  156.8733 C.ar    1  UNL1        0.0016
      3 C         137.9737  141.8012  157.2460 C.ar    1  UNL1        0.0000
      4 C         138.2019  143.0901  156.5134 C.ar    1  UNL1        0.0000
      5 C         137.2739  143.4989  155.4080 C.ar    1  UNL1        0.0000
      6 C         136.1178  142.6189  155.0353 C.ar    1  UNL1        0.0016
      7 C         139.3580  143.9701  156.8860 C.ar    1  UNL1        0.0000
      8 C         140.2253  144.5625  155.8152 C.ar    1  UNL1        0.0000
      9 C         141.3815  145.4426  156.1878 C.ar    1  UNL1        0.0000
     10 C         141.6704  145.7301  157.6313 C.ar    1  UNL1        0.0016
     11 C         140.8031  145.1375  158.7023 C.ar    1  UNL1        0.0207
     12 C         139.6470  144.2576  158.3296 C.ar    1  UNL1        0.0016
     13 C         141.0920  145.4251  160.1458 C.2     1  UNL1        0.1175
     14 N         139.9900  145.8833  161.0545 N.2     1  UNL1       -0.1798
     15 N         140.2789  146.1708  162.4980 N.pl3   1  UNL1       -0.2359
     16 H         140.0239  147.0382  162.8878 H       1  UNL1        0.1744
     17 C         140.9562  145.1368  163.3477 C.ar    1  UNL1        0.0652
     18 C         140.1375  144.1233  164.0909 C.ar    1  UNL1        0.0192
     19 C         140.8148  143.0893  164.9407 C.ar    1  UNL1        0.0382
     20 C         142.3109  143.0688  165.0472 C.ar    1  UNL1        0.1388
     21 C         143.1296  144.0824  164.3039 C.ar    1  UNL1        0.0382
     22 C         142.4523  145.1163  163.4542 C.ar    1  UNL1        0.0192
     23 O         142.9882  142.0348  165.8969 O.3     1  UNL1       -0.4714
     24 C         142.9665  142.1607  167.3915 C.3     1  UNL1        0.2525
     25 N         133.7759  139.9825  156.4511 N.2     1  UNL1       -0.1798
     26 C         134.7333  140.4501  155.3953 C.2     1  UNL1        0.1175
     27 N         132.6197  139.1025  156.0784 N.pl3   1  UNL1       -0.2359
     28 H         132.7287  138.4152  155.3820 H       1  UNL1        0.1744
     29 C         128.6533  139.6040  158.1437 C.ar    1  UNL1        0.1388
     30 C         128.9370  140.3496  156.8735 C.ar    1  UNL1        0.0382
     31 C         130.2592  140.1824  156.1850 C.ar    1  UNL1        0.0192
     32 C         131.2976  139.2697  156.7668 C.ar    1  UNL1        0.0652
     33 C         131.0138  138.5241  158.0371 C.ar    1  UNL1        0.0192
     34 C         129.6917  138.6913  158.7255 C.ar    1  UNL1        0.0382
     35 C         127.2795  140.2670  160.2469 C.3     1  UNL1        0.2525
     36 O         127.3311  139.7712  158.8321 O.3     1  UNL1       -0.4714
@<TRIPOS>BOND
     1    35    36    1
     2    36    29    1
     3    29    30   ar
     4    30    31   ar
     5    31    32   ar
     6    32    27    1
     7    27    25    1
     8    25    26    2
     9    26     1    1
    10     1     2   ar
    11     2     3   ar
    12     3     4   ar
    13     4     7    1
    14     7     8   ar
    15     8     9   ar
    16     9    10   ar
    17    10    11   ar
    18    11    13    1
    19    13    14    2
    20    14    15    1
    21    15    17    1
    22    17    18   ar
    23    18    19   ar
    24    19    20   ar
    25    20    23    1
    26    23    24    1
    27    20    21   ar
    28    21    22   ar
    29    11    12   ar
    30     4     5   ar
    31     5     6   ar
    32    32    33   ar
    33    33    34   ar
    34    34    29   ar
    35     6     1   ar
    36    12     7   ar
    37    22    17   ar
    38    27    28    1
    39    15    16    1
@<TRIPOS>MOLECULE
*****
 36 39 0 0 0
SMALL
GASTEIGER

@<TRIPOS>ATOM
      1 C         142.4147  139.6671  164.2993 C.ar    1  UNL1        0.0207
      2 C         143.0286  138.4631  163.6488 C.ar    1  UNL1        0.0016
      3 C         143.2608  138.4477  162.1669 C.ar    1  UNL1        0.0000
      4 C         142.8791  139.6366  161.3356 C.ar    1  UNL1        0.0000
      5 C         142.2651  140.8407  161.9863 C.ar    1  UNL1        0.0000
      6 C         142.0330  140.8559  163.4681 C.ar    1  UNL1        0.0016
      7 C         143.1112  139.6213  159.8538 C.ar    1  UNL1        0.0000
      8 C         143.7481  140.8018  159.1823 C.ar    1  UNL1        0.0000
      9 C         143.9803  140.7865  157.7004 C.ar    1  UNL1        0.0000
     10 C         143.5756  139.5909  156.8901 C.ar    1  UNL1        0.0016
     11 C         142.9388  138.4104  157.5617 C.ar    1  UNL1        0.0207
     12 C         142.7066  138.4256  159.0435 C.ar    1  UNL1        0.0016
     13 C         142.5341  137.2147  156.7514 C.2     1  UNL1        0.1175
     14 N         143.5617  136.4649  155.9563 N.2     1  UNL1       -0.1798
     15 N         143.1570  135.2692  155.1460 N.pl3   1  UNL1       -0.2359
     16 H         142.8713  135.3822  154.2107 H       1  UNL1        0.1744
     17 C         143.1877  133.9013  155.7608 C.ar    1  UNL1        0.0652
     18 C         142.1787  132.8709  155.3483 C.ar    1  UNL1        0.0192
     19 C         142.2094  131.5030  155.9630 C.ar    1  UNL1        0.0382
     20 C         143.2490  131.1655  156.9903 C.ar    1  UNL1        0.1388
     21 C         144.2581  132.1960  157.4027 C.ar    1  UNL1        0.0382
     22 C         144.2274  133.5639  156.7880 C.ar    1  UNL1        0.0192
     23 O         143.2797  129.7977  157.6050 O.3     1  UNL1       -0.4714
     24 C         143.0846  128.5843  156.7449 C.3     1  UNL1        0.2525
     25 N         143.1512  138.9977  166.6993 N.2     1  UNL1       -0.1798
     26 C         142.1825  139.6824  165.7812 C.2     1  UNL1        0.1175
     27 N         142.9191  139.0130  168.1811 N.pl3   1  UNL1       -0.2359
     28 H         143.2800  138.2900  168.7433 H       1  UNL1        0.1744
     29 C         140.5729  142.3638  170.0566 C.ar    1  UNL1        0.1388
     30 C         139.9152  141.0408  169.7980 C.ar    1  UNL1        0.0382
     31 C         140.6972  139.9239  169.1728 C.ar    1  UNL1        0.0192
     32 C         142.1370  140.1300  168.8062 C.ar    1  UNL1        0.0652
     33 C         142.7948  141.4530  169.0648 C.ar    1  UNL1        0.0192
     34 C         142.0127  142.5699  169.6900 C.ar    1  UNL1        0.0382
     35 C         140.0713  144.9020  170.2929 C.3     1  UNL1        0.2525
     36 O         139.7908  143.4808  170.6817 O.3     1  UNL1       -0.4714
@<TRIPOS>BOND
     1    35    36    1
     2    36    29    1
     3    29    30   ar
     4    30    31   ar
     5    31    32   ar
     6    32    27    1
     7    27    25    1
     8    25    26    2
     9    26     1    1
    10     1     2   ar
    11     2     3   ar
    12     3     4   ar
    13     4     7    1
    14     7     8   ar
    15     8     9   ar
    16     9    10   ar
    17    10    11   ar
    18    11    13    1
    19    13    14    2
    20    14    15    1
    21    15    17    1
    22    17    18   ar
    23    18    19   ar
    24    19    20   ar
    25    20    23    1
    26    23    24    1
    27    20    21   ar
    28    21    22   ar
    29    11    12   ar
    30     4     5   ar
    31     5     6   ar
    32    32    33   ar
    33    33    34   ar
    34    34    29   ar
    35     6     1   ar
    36    12     7   ar
    37    22    17   ar
    38    27    28    1
    39    15    16    1
@<TRIPOS>MOLECULE
*****
 36 39 0 0 0
SMALL
GASTEIGER

@<TRIPOS>ATOM
      1 C         142.0169  136.4416  156.5728 C.ar    1  UNL1        0.0207
      2 C         140.6740  136.8119  156.0164 C.ar    1  UNL1        0.0016
      3 C         139.9582  138.0260  156.5300 C.ar    1  UNL1        0.0000
      4 C         140.5854  138.8698  157.5999 C.ar    1  UNL1        0.0000
      5 C         141.9283  138.4995  158.1562 C.ar    1  UNL1        0.0000
      6 C         142.6440  137.2854  157.6427 C.ar    1  UNL1        0.0016
      7 C         139.8697  140.0839  158.1134 C.ar    1  UNL1        0.0000
      8 C         139.4330  141.1563  157.1599 C.ar    1  UNL1        0.0000
      9 C         138.7173  142.3705  157.6734 C.ar    1  UNL1        0.0000
     10 C         138.4382  142.5121  159.1404 C.ar    1  UNL1        0.0016
     11 C         138.8750  141.4396  160.0939 C.ar    1  UNL1        0.0207
     12 C         139.5907  140.2256  159.5804 C.ar    1  UNL1        0.0016
     13 C         138.5960  141.5813  161.5609 C.2     1  UNL1        0.1175
     14 N         137.2571  141.1879  162.1111 N.2     1  UNL1       -0.1798
     15 N         136.9780  141.3295  163.5781 N.pl3   1  UNL1       -0.2359
     16 H         136.0873  141.6160  163.8844 H       1  UNL1        0.1744
     17 C         138.0561  141.0348  164.5785 C.ar    1  UNL1        0.0652
     18 C         138.9036  142.1487  165.1178 C.ar    1  UNL1        0.0192
     19 C         139.9818  141.8540  166.1183 C.ar    1  UNL1        0.0382
     20 C         140.2124  140.4453  166.5793 C.ar    1  UNL1        0.1388
     21 C         139.3648  139.3314  166.0399 C.ar    1  UNL1        0.0382
     22 C         138.2867  139.6261  165.0395 C.ar    1  UNL1        0.0192
     23 O         141.2905  140.1506  167.5797 O.3     1  UNL1       -0.4714
     24 C         140.9513  140.0374  169.0365 C.3     1  UNL1        0.2525
     25 N         141.9652  133.9725  155.7661 N.2     1  UNL1       -0.1798
     26 C         142.7326  135.2275  156.0593 C.2     1  UNL1        0.1175
     27 N         142.6809  132.7584  155.2526 N.pl3   1  UNL1       -0.2359
     28 H         142.7657  132.6103  154.2830 H       1  UNL1        0.1744
     29 C         144.4405  129.7929  158.1439 C.ar    1  UNL1        0.1388
     30 C         145.0055  131.1796  158.0550 C.ar    1  UNL1        0.0382
     31 C         144.4189  132.1681  157.0912 C.ar    1  UNL1        0.0192
     32 C         143.2674  131.7699  156.2163 C.ar    1  UNL1        0.0652
     33 C         142.7025  130.3833  156.3052 C.ar    1  UNL1        0.0192
     34 C         143.2890  129.3948  157.2690 C.ar    1  UNL1        0.0382
     35 C         144.1761  128.2252  160.1987 C.3     1  UNL1        0.2525
     36 O         145.0270  128.8044  159.1077 O.3     1  UNL1       -0.4714
@<TRIPOS>BOND
     1    35    36    1
     2    36    29    1
     3    29    30   ar
     4    30    31   ar
     5    31    32   ar
     6    32    27    1
     7    27    25    1
     8    25    26    2
     9    26     1    1
    10     1     2   ar
    11     2     3   ar
    12     3     4   ar
    13     4     7    1
    14     7     8   ar
    15     8     9   ar
    16     9    10   ar
    17    10    11   ar
    18    11    13    1
    19    13    14    2
    20    14    15    1
    21    15    17    1
    22    17    18   ar
    23    18    19   ar
    24    19    20   ar
    25    20    23    1
    26    23    24    1
    27    20    21   ar
    28    21    22   ar
    29    11    12   ar
    30     4     5   ar
    31     5     6   ar
    32    32    33   ar
    33    33    34   ar
    34    34    29   ar
    35     6     1   ar
    36    12     7   ar
    37    22    17   ar
    38    27    28    1
    39    15    16    1
@<TRIPOS>MOLECULE
*****
 36 39 0 0 0
SMALL
GASTEIGER

@<TRIPOS>ATOM
      1 C         138.7222  143.6177  156.7558 C.ar    1  UNL1        0.0207
      2 C         139.6951  143.8857  157.8655 C.ar    1  UNL1        0.0016
      3 C         139.7264  142.9899  159.0683 C.ar    1  UNL1        0.0000
      4 C         138.7848  141.8260  159.1612 C.ar    1  UNL1        0.0000
      5 C         137.8119  141.5579  158.0514 C.ar    1  UNL1        0.0000
      6 C         137.7806  142.4538  156.8487 C.ar    1  UNL1        0.0016
      7 C         138.8160  140.9302  160.3639 C.ar    1  UNL1        0.0000
      8 C         137.8311  139.8056  160.4872 C.ar    1  UNL1        0.0000
      9 C         137.8623  138.9097  161.6899 C.ar    1  UNL1        0.0000
     10 C         138.8785  139.1385  162.7693 C.ar    1  UNL1        0.0016
     11 C         139.8634  140.2631  162.6460 C.ar    1  UNL1        0.0207
     12 C         139.8322  141.1589  161.4433 C.ar    1  UNL1        0.0016
     13 C         140.8796  140.4919  163.7254 C.2     1  UNL1        0.1175
     14 N         141.6865  141.7563  163.7400 N.2     1  UNL1       -0.1798
     15 N         142.7027  141.9851  164.8194 N.pl3   1  UNL1       -0.2359
     16 H         143.6629  141.9695  164.6027 H       1  UNL1        0.1744
     17 C         142.2558  142.2375  166.2288 C.ar    1  UNL1        0.0652
     18 C         143.2093  142.0256  167.3672 C.ar    1  UNL1        0.0192
     19 C         142.7625  142.2781  168.7767 C.ar    1  UNL1        0.0382
     20 C         141.3622  142.7423  169.0478 C.ar    1  UNL1        0.1388
     21 C         140.4086  142.9541  167.9093 C.ar    1  UNL1        0.0382
     22 C         140.8555  142.7017  166.4999 C.ar    1  UNL1        0.0192
     23 O         140.9153  142.9947  170.4572 O.3     1  UNL1       -0.4714
     24 C         140.7527  141.8471  171.4094 C.3     1  UNL1        0.2525
     25 N         139.3253  145.8715  155.6126 N.2     1  UNL1       -0.1798
     26 C         138.6910  144.5135  155.5530 C.2     1  UNL1        0.1175
     27 N         139.2941  146.7673  154.4099 N.pl3   1  UNL1       -0.2359
     28 H         139.2437  146.3777  153.5072 H       1  UNL1        0.1744
     29 C         139.4306  151.2353  154.9281 C.ar    1  UNL1        0.1388
     30 C         140.1526  150.5907  153.7822 C.ar    1  UNL1        0.0382
     31 C         140.1071  149.1014  153.6094 C.ar    1  UNL1        0.0192
     32 C         139.3396  148.2566  154.5827 C.ar    1  UNL1        0.0652
     33 C         138.6176  148.9011  155.7286 C.ar    1  UNL1        0.0192
     34 C         138.6630  150.3904  155.9013 C.ar    1  UNL1        0.0382
     35 C         138.3370  153.5711  154.6152 C.3     1  UNL1        0.2525
     36 O         139.4761  152.7246  155.1009 O.3     1  UNL1       -0.4714
@<TRIPOS>BOND
     1    35    36    1
     2    36    29    1
     3    29    30   ar
     4    30    31   ar
     5    31    32   ar
     6    32    27    1
     7    27    25    1
     8    25    26    2
     9    26     1    1
    10     1     2   ar
    11     2     3   ar
    12     3     4   ar
    13     4     7    1
    14     7     8   ar
    15     8     9   ar
    16     9    10   ar
    17    10    11   ar
    18    11    13    1
    19    13    14    2
    20    14    15    1
    21    15    17    1
    22    17    18   ar
    23    18    19   ar
    24    19    20   ar
    25    20    23    1
    26    23    24    1
    27    20    21   ar
    28    21    22   ar
    29    11    12   ar
    30     4     5   ar
    31     5     6   ar
    32    32    33   ar
    33    33    34   ar
    34    34    29   ar
    35     6     1   ar
    36    12     7   ar
    37    22    17   ar
    38    27    28    1
    39    15    16    1
