@<TRIPOS>MOLECULE
*****
 42 46 0 0 0
SMALL
GASTEIGER

@<TRIPOS>ATOM
      1 N         142.9704  137.3023  158.5031 N.pl3   1  UNL1       -0.2113
      2 H         143.5692  136.8661  159.1515 H       1  UNL1        0.2927
      3 C         142.7061  136.6576  157.1748 C.2     1  UNL1        0.3159
      4 N         142.0334  137.3032  155.9997 N.2     1  UNL1       -0.0650
      5 C         141.9796  136.2987  154.8870 C.3     1  UNL1        0.2416
      6 C         142.6191  135.0324  155.3744 C.ar    1  UNL1        0.0335
      7 C         142.8505  133.7059  154.7133 C.ar    1  UNL1        0.0001
      8 C         143.5309  132.6014  155.4662 C.ar    1  UNL1        0.0037
      9 C         143.9798  132.8232  156.8802 C.ar    1  UNL1        0.0716
     10 C         143.7484  134.1496  157.5412 C.ar    1  UNL1        0.0110
     11 C         143.0680  135.2542  156.7883 C.ar    1  UNL1        0.0817
     12 C         144.6603  131.7185  157.6330 C.3     1  UNL1        0.4186
     13 F         145.3406  130.6138  158.3859 F       1  UNL1       -0.1659
     14 F         145.3477  132.7321  158.4990 F       1  UNL1       -0.1659
     15 F         143.9728  130.7049  156.7671 F       1  UNL1       -0.1659
     16 C         141.3900  136.5215  153.5259 C.3     1  UNL1        0.0843
     17 C         139.9125  136.7315  153.3738 C.ar    1  UNL1       -0.0175
     18 C         139.1322  137.3932  154.4707 C.ar    1  UNL1       -0.0041
     19 C         137.6548  137.6033  154.3187 C.ar    1  UNL1       -0.0003
     20 C         136.9577  137.1515  153.0697 C.ar    1  UNL1       -0.0000
     21 C         137.7380  136.4898  151.9728 C.ar    1  UNL1       -0.0003
     22 C         139.2153  136.2797  152.1248 C.ar    1  UNL1       -0.0041
     23 C         142.3224  138.6116  158.8436 C.3     1  UNL1        0.2849
     24 N         142.7937  138.4076  161.3903 N.am    1  UNL1       -0.2999
     25 C         141.9438  138.9144  160.2631 C.2     1  UNL1        0.2701
     26 O         140.7152  139.7239  160.5553 O.2     1  UNL1       -0.2706
     27 H         143.6000  137.8763  161.1985 H       1  UNL1        0.1496
     28 N         141.8796  139.1386  164.8173 N.3     1  UNL1       -0.2711
     29 C         142.4664  139.9278  163.6847 C.3     1  UNL1        0.0933
     30 C         142.4150  138.7103  162.8098 C.3     1  UNL1        0.1035
     31 C         141.8282  137.9212  163.9425 C.3     1  UNL1        0.0933
     32 C         140.7437  140.0468  169.0758 C.3     1  UNL1        0.0992
     33 C         142.1435  139.6193  168.7479 C.3     1  UNL1        0.0125
     34 C         142.5222  139.3165  167.3284 C.3     1  UNL1        0.0165
     35 C         141.5009  139.4413  166.2368 C.3     1  UNL1        0.0576
     36 C         140.1011  139.8689  166.5648 C.3     1  UNL1        0.0165
     37 C         139.7224  140.1716  167.9842 C.3     1  UNL1        0.0125
     38 C         140.3649  140.3496  170.4953 C.2     1  UNL1        0.3164
     39 O         139.4992  139.3934  171.2609 O.2     1  UNL1       -0.2501
     40 O         140.8519  141.6087  171.1492 O.3     1  UNL1       -0.4485
     41 C         140.4901  143.7694  169.7525 C.3     1  UNL1        0.0513
     42 C         141.4073  142.7224  170.3118 C.3     1  UNL1        0.2086
@<TRIPOS>BOND
     1    41    42    1
     2    42    40    1
     3    40    38    1
     4    38    39    2
     5    32    38    1
     6    32    33    1
     7    33    34    1
     8    34    35    1
     9    35    28    1
    10    28    29    1
    11    29    30    1
    12    30    24    1
    13    24    25   am
    14    25    26    2
    15    25    23    1
    16    23     1    1
    17     1     3    1
    18     3     4    2
    19     4     5    1
    20     5    16    1
    21    16    17    1
    22    17    18   ar
    23    18    19   ar
    24    19    20   ar
    25    20    21   ar
    26    21    22   ar
    27     5     6    1
    28     6     7   ar
    29     7     8   ar
    30     8     9   ar
    31     9    12    1
    32    12    13    1
    33    12    14    1
    34    12    15    1
    35     9    10   ar
    36    10    11   ar
    37    30    31    1
    38    35    36    1
    39    36    37    1
    40    37    32    1
    41    31    28    1
    42    11     3    1
    43    22    17   ar
    44    11     6   ar
    45    24    27    1
    46     1     2    1
@<TRIPOS>MOLECULE
*****
 42 46 0 0 0
SMALL
GASTEIGER

@<TRIPOS>ATOM
      1 N         144.2074  143.8969  164.2300 N.pl3   1  UNL1       -0.2113
      2 H         145.1538  144.1534  164.3191 H       1  UNL1        0.2927
      3 C         143.7700  142.5075  164.5881 C.2     1  UNL1        0.3159
      4 N         143.5860  141.3670  163.6314 N.2     1  UNL1       -0.0650
      5 C         143.1421  140.1694  164.4180 C.3     1  UNL1        0.2416
      6 C         143.0517  140.5697  165.8607 C.ar    1  UNL1        0.0335
      7 C         142.6661  139.8051  167.0922 C.ar    1  UNL1        0.0001
      8 C         142.6687  140.4857  168.4289 C.ar    1  UNL1        0.0037
      9 C         143.0568  141.9308  168.5341 C.ar    1  UNL1        0.0716
     10 C         143.4423  142.6953  167.3026 C.ar    1  UNL1        0.0110
     11 C         143.4398  142.0148  165.9659 C.ar    1  UNL1        0.0817
     12 C         143.0593  142.6113  169.8709 C.3     1  UNL1        0.4186
     13 F         143.0618  143.2918  171.2077 F       1  UNL1       -0.1659
     14 F         144.5341  142.3664  169.9928 F       1  UNL1       -0.1659
     15 F         141.5845  142.8561  169.7490 F       1  UNL1       -0.1659
     16 C         142.8413  138.8100  163.8597 C.3     1  UNL1        0.0843
     17 C         141.4264  138.4258  163.5422 C.ar    1  UNL1       -0.0175
     18 C         140.4684  138.1083  164.6518 C.ar    1  UNL1       -0.0041
     19 C         139.0537  137.7241  164.3344 C.ar    1  UNL1       -0.0003
     20 C         138.5969  137.6575  162.9072 C.ar    1  UNL1       -0.0000
     21 C         139.5549  137.9750  161.7975 C.ar    1  UNL1       -0.0003
     22 C         140.9697  138.3592  162.1150 C.ar    1  UNL1       -0.0041
     23 C         143.2030  144.8955  163.7359 C.3     1  UNL1        0.2849
     24 N         142.4975  144.7962  161.2375 N.am    1  UNL1       -0.2999
     25 C         142.2119  144.5031  162.6806 C.2     1  UNL1        0.2701
     26 O         140.9352  143.8177  163.0684 O.2     1  UNL1       -0.2706
     27 H         143.3354  145.2460  160.9830 H       1  UNL1        0.1496
     28 N         140.1046  143.8489  158.6898 N.3     1  UNL1       -0.2711
     29 C         140.1851  144.9398  159.7161 C.3     1  UNL1        0.0933
     30 C         141.5063  144.4038  160.1822 C.3     1  UNL1        0.1035
     31 C         141.4258  143.3129  159.1558 C.3     1  UNL1        0.0933
     32 C         137.1312  142.6717  155.5238 C.3     1  UNL1        0.0992
     33 C         137.1302  141.9725  156.8508 C.3     1  UNL1        0.0125
     34 C         138.1213  142.3649  157.9062 C.3     1  UNL1        0.0165
     35 C         139.1135  143.4565  157.6344 C.3     1  UNL1        0.0576
     36 C         139.1145  144.1558  156.3074 C.3     1  UNL1        0.0165
     37 C         138.1235  143.7634  155.2521 C.3     1  UNL1        0.0125
     38 C         136.1402  142.2794  154.4684 C.2     1  UNL1        0.3164
     39 O         136.0447  143.0709  153.1978 O.2     1  UNL1       -0.2501
     40 O         135.2445  141.0955  154.6837 O.3     1  UNL1       -0.4485
     41 C         133.2453  140.2737  156.1251 C.3     1  UNL1        0.0513
     42 C         133.8530  141.2931  155.2078 C.3     1  UNL1        0.2086
@<TRIPOS>BOND
     1    41    42    1
     2    42    40    1
     3    40    38    1
     4    38    39    2
     5    32    38    1
     6    32    33    1
     7    33    34    1
     8    34    35    1
     9    35    28    1
    10    28    29    1
    11    29    30    1
    12    30    24    1
    13    24    25   am
    14    25    26    2
    15    25    23    1
    16    23     1    1
    17     1     3    1
    18     3     4    2
    19     4     5    1
    20     5    16    1
    21    16    17    1
    22    17    18   ar
    23    18    19   ar
    24    19    20   ar
    25    20    21   ar
    26    21    22   ar
    27     5     6    1
    28     6     7   ar
    29     7     8   ar
    30     8     9   ar
    31     9    12    1
    32    12    13    1
    33    12    14    1
    34    12    15    1
    35     9    10   ar
    36    10    11   ar
    37    30    31    1
    38    35    36    1
    39    36    37    1
    40    37    32    1
    41    31    28    1
    42    11     3    1
    43    22    17   ar
    44    11     6   ar
    45    24    27    1
    46     1     2    1
@<TRIPOS>MOLECULE
*****
 42 46 0 0 0
SMALL
GASTEIGER

@<TRIPOS>ATOM
      1 N         144.3195  143.4783  165.9786 N.pl3   1  UNL1       -0.2113
      2 H         144.9273  143.6747  166.7277 H       1  UNL1        0.2927
      3 C         143.5300  142.2029  165.9678 C.2     1  UNL1        0.3159
      4 N         143.7304  141.0499  165.0295 N.2     1  UNL1       -0.0650
      5 C         142.7257  139.9911  165.3753 C.3     1  UNL1        0.2416
      6 C         141.9045  140.4897  166.5272 C.ar    1  UNL1        0.0335
      7 C         140.7683  139.8756  167.2900 C.ar    1  UNL1        0.0001
      8 C         140.1292  140.6285  168.4189 C.ar    1  UNL1        0.0037
      9 C         140.6263  141.9956  168.7851 C.ar    1  UNL1        0.0716
     10 C         141.7625  142.6097  168.0224 C.ar    1  UNL1        0.0110
     11 C         142.4016  141.8567  166.8934 C.ar    1  UNL1        0.0817
     12 C         139.9871  142.7485  169.9141 C.3     1  UNL1        0.4186
     13 F         139.3480  143.5014  171.0431 F       1  UNL1       -0.1659
     14 F         139.0690  141.5896  170.1673 F       1  UNL1       -0.1659
     15 F         140.9051  143.9074  169.6610 F       1  UNL1       -0.1659
     16 C         142.5697  138.6661  164.6895 C.3     1  UNL1        0.0843
     17 C         141.4139  138.4332  163.7620 C.ar    1  UNL1       -0.0175
     18 C         140.1146  137.9106  164.2994 C.ar    1  UNL1       -0.0041
     19 C         138.9589  137.6776  163.3720 C.ar    1  UNL1       -0.0003
     20 C         139.1025  137.9673  161.9073 C.ar    1  UNL1       -0.0000
     21 C         140.4018  138.4898  161.3699 C.ar    1  UNL1       -0.0003
     22 C         141.5575  138.7228  162.2973 C.ar    1  UNL1       -0.0041
     23 C         144.1830  144.4545  164.8478 C.3     1  UNL1        0.2849
     24 N         141.9886  143.5400  163.8000 N.am    1  UNL1       -0.2999
     25 C         143.3737  144.0923  163.6379 C.2     1  UNL1        0.2701
     26 O         143.9496  144.2824  162.2660 O.2     1  UNL1       -0.2706
     27 H         141.6106  143.4152  164.7004 H       1  UNL1        0.1496
     28 N         140.0348  142.6656  160.8789 N.3     1  UNL1       -0.2711
     29 C         139.8140  143.5347  162.0814 C.3     1  UNL1        0.0933
     30 C         141.1794  143.1778  162.5900 C.3     1  UNL1        0.1035
     31 C         141.4001  142.3088  161.3876 C.3     1  UNL1        0.0933
     32 C         137.6070  141.5791  157.2491 C.3     1  UNL1        0.0992
     33 C         138.3799  142.8643  157.2773 C.3     1  UNL1        0.0125
     34 C         139.1892  143.2265  158.4872 C.3     1  UNL1        0.0165
     35 C         139.2255  142.3035  159.6690 C.3     1  UNL1        0.0576
     36 C         138.4526  141.0182  159.6409 C.3     1  UNL1        0.0165
     37 C         137.6434  140.6560  158.4311 C.3     1  UNL1        0.0125
     38 C         136.7978  141.2168  156.0393 C.2     1  UNL1        0.3164
     39 O         136.6863  142.1805  154.8953 O.2     1  UNL1       -0.2501
     40 O         136.0999  139.8906  155.9735 O.3     1  UNL1       -0.4485
     41 C         133.6232  140.6743  155.9279 C.3     1  UNL1        0.0513
     42 C         134.7184  139.7978  155.3965 C.3     1  UNL1        0.2086
@<TRIPOS>BOND
     1    41    42    1
     2    42    40    1
     3    40    38    1
     4    38    39    2
     5    32    38    1
     6    32    33    1
     7    33    34    1
     8    34    35    1
     9    35    28    1
    10    28    29    1
    11    29    30    1
    12    30    24    1
    13    24    25   am
    14    25    26    2
    15    25    23    1
    16    23     1    1
    17     1     3    1
    18     3     4    2
    19     4     5    1
    20     5    16    1
    21    16    17    1
    22    17    18   ar
    23    18    19   ar
    24    19    20   ar
    25    20    21   ar
    26    21    22   ar
    27     5     6    1
    28     6     7   ar
    29     7     8   ar
    30     8     9   ar
    31     9    12    1
    32    12    13    1
    33    12    14    1
    34    12    15    1
    35     9    10   ar
    36    10    11   ar
    37    30    31    1
    38    35    36    1
    39    36    37    1
    40    37    32    1
    41    31    28    1
    42    11     3    1
    43    22    17   ar
    44    11     6   ar
    45    24    27    1
    46     1     2    1
@<TRIPOS>MOLECULE
*****
 42 46 0 0 0
SMALL
GASTEIGER

@<TRIPOS>ATOM
      1 N         140.4325  145.7082  161.2488 N.pl3   1  UNL1       -0.2113
      2 H         140.3384  146.6292  161.5837 H       1  UNL1        0.2927
      3 C         140.0490  144.5500  162.1214 C.2     1  UNL1        0.3159
      4 N         138.7702  143.7702  162.0400 N.2     1  UNL1       -0.0650
      5 C         138.8079  142.7065  163.0970 C.3     1  UNL1        0.2416
      6 C         140.1099  142.8289  163.8316 C.ar    1  UNL1        0.0335
      7 C         140.6962  142.0501  164.9717 C.ar    1  UNL1        0.0001
      8 C         142.0495  142.4106  165.5088 C.ar    1  UNL1        0.0037
      9 C         142.8166  143.5499  164.9058 C.ar    1  UNL1        0.0716
     10 C         142.2303  144.3287  163.7658 C.ar    1  UNL1        0.0110
     11 C         140.8770  143.9682  163.2287 C.ar    1  UNL1        0.0817
     12 C         144.1699  143.9105  165.4430 C.3     1  UNL1        0.4186
     13 F         145.5232  144.2709  165.9802 F       1  UNL1       -0.1659
     14 F         144.2837  145.0041  164.4227 F       1  UNL1       -0.1659
     15 F         144.0562  142.8169  166.4633 F       1  UNL1       -0.1659
     16 C         137.7323  141.6976  163.3712 C.3     1  UNL1        0.0843
     17 C         138.0943  140.3382  163.8920 C.ar    1  UNL1       -0.0175
     18 C         138.0230  140.0552  165.3633 C.ar    1  UNL1       -0.0041
     19 C         138.3849  138.6959  165.8841 C.ar    1  UNL1       -0.0003
     20 C         138.8182  137.6195  164.9335 C.ar    1  UNL1       -0.0000
     21 C         138.8896  137.9025  163.4622 C.ar    1  UNL1       -0.0003
     22 C         138.5277  139.2618  162.9414 C.ar    1  UNL1       -0.0041
     23 C         140.9594  145.4631  159.8658 C.3     1  UNL1        0.2849
     24 N         140.2614  143.2544  158.6893 N.am    1  UNL1       -0.2999
     25 C         141.2858  144.0673  159.4240 C.2     1  UNL1        0.2701
     26 O         142.6365  143.4844  159.7170 O.2     1  UNL1       -0.2706
     27 H         139.3749  143.6370  158.4970 H       1  UNL1        0.1496
     28 N         141.0495  139.8846  157.6226 N.3     1  UNL1       -0.2711
     29 C         141.5968  141.2481  157.3203 C.3     1  UNL1        0.0933
     30 C         140.5878  141.8586  158.2475 C.3     1  UNL1        0.1035
     31 C         140.0406  140.4951  158.5497 C.3     1  UNL1        0.0933
     32 C         142.0286  135.6972  156.2972 C.3     1  UNL1        0.0992
     33 C         142.9330  136.4105  157.2581 C.3     1  UNL1        0.0125
     34 C         142.6066  137.8063  157.6999 C.3     1  UNL1        0.0165
     35 C         141.3759  138.4888  157.1808 C.3     1  UNL1        0.0576
     36 C         140.4715  137.7755  156.2199 C.3     1  UNL1        0.0165
     37 C         140.7979  136.3798  155.7781 C.3     1  UNL1        0.0125
     38 C         142.3549  134.3014  155.8553 C.2     1  UNL1        0.3164
     39 O         141.2669  133.4011  155.3497 O.2     1  UNL1       -0.2501
     40 O         143.7693  133.8059  155.9191 O.3     1  UNL1       -0.4485
     41 C         144.9189  131.4827  156.0966 C.3     1  UNL1        0.0513
     42 C         144.0983  132.5765  156.7132 C.3     1  UNL1        0.2086
@<TRIPOS>BOND
     1    41    42    1
     2    42    40    1
     3    40    38    1
     4    38    39    2
     5    32    38    1
     6    32    33    1
     7    33    34    1
     8    34    35    1
     9    35    28    1
    10    28    29    1
    11    29    30    1
    12    30    24    1
    13    24    25   am
    14    25    26    2
    15    25    23    1
    16    23     1    1
    17     1     3    1
    18     3     4    2
    19     4     5    1
    20     5    16    1
    21    16    17    1
    22    17    18   ar
    23    18    19   ar
    24    19    20   ar
    25    20    21   ar
    26    21    22   ar
    27     5     6    1
    28     6     7   ar
    29     7     8   ar
    30     8     9   ar
    31     9    12    1
    32    12    13    1
    33    12    14    1
    34    12    15    1
    35     9    10   ar
    36    10    11   ar
    37    30    31    1
    38    35    36    1
    39    36    37    1
    40    37    32    1
    41    31    28    1
    42    11     3    1
    43    22    17   ar
    44    11     6   ar
    45    24    27    1
    46     1     2    1
@<TRIPOS>MOLECULE
*****
 42 46 0 0 0
SMALL
GASTEIGER

@<TRIPOS>ATOM
      1 N         145.0273  142.6883  164.3549 N.pl3   1  UNL1       -0.2113
      2 H         145.5585  143.4388  164.7069 H       1  UNL1        0.2927
      3 C         143.6753  142.3905  164.9323 C.2     1  UNL1        0.3159
      4 N         143.3806  141.4065  166.0253 N.2     1  UNL1       -0.0650
      5 C         141.9038  141.4323  166.2865 C.3     1  UNL1        0.2416
      6 C         141.2857  142.4324  165.3549 C.ar    1  UNL1        0.0335
      7 C         139.8674  142.8803  165.1606 C.ar    1  UNL1        0.0001
      8 C         139.5440  143.9204  164.1293 C.ar    1  UNL1        0.0037
      9 C         140.6389  144.5127  163.2924 C.ar    1  UNL1        0.0716
     10 C         142.0572  144.0648  163.4867 C.ar    1  UNL1        0.0110
     11 C         142.3806  143.0246  164.5179 C.ar    1  UNL1        0.0817
     12 C         140.3154  145.5528  162.2611 C.3     1  UNL1        0.4186
     13 F         139.9920  146.5929  161.2299 F       1  UNL1       -0.1659
     14 F         141.7220  145.4789  161.7453 F       1  UNL1       -0.1659
     15 F         138.9089  145.6267  162.7769 F       1  UNL1       -0.1659
     16 C         141.1732  140.6036  167.3011 C.3     1  UNL1        0.0843
     17 C         140.1233  139.6283  166.8574 C.ar    1  UNL1       -0.0175
     18 C         138.8165  139.5486  167.5893 C.ar    1  UNL1       -0.0041
     19 C         137.7667  138.5734  167.1457 C.ar    1  UNL1       -0.0003
     20 C         138.0238  137.6779  165.9701 C.ar    1  UNL1       -0.0000
     21 C         139.3306  137.7577  165.2382 C.ar    1  UNL1       -0.0003
     22 C         140.3804  138.7329  165.6818 C.ar    1  UNL1       -0.0041
     23 C         145.5701  141.8426  163.2412 C.3     1  UNL1        0.2849
     24 N         144.3809  139.9752  161.8816 N.am    1  UNL1       -0.2999
     25 C         144.6762  141.4280  162.1102 C.2     1  UNL1        0.2701
     26 O         144.0776  142.4661  161.2080 O.2     1  UNL1       -0.2706
     27 H         144.7738  139.2939  162.4738 H       1  UNL1        0.1496
     28 N         142.2229  138.9743  159.1512 N.3     1  UNL1       -0.2711
     29 C         143.5348  139.6938  159.2572 C.3     1  UNL1        0.0933
     30 C         143.4870  139.5606  160.7506 C.3     1  UNL1        0.1035
     31 C         142.1752  138.8411  160.6445 C.3     1  UNL1        0.0933
     32 C         139.5412  137.7304  155.7583 C.3     1  UNL1        0.0992
     33 C         139.2402  138.9789  156.5333 C.3     1  UNL1        0.0125
     34 C         140.1341  139.3935  157.6643 C.3     1  UNL1        0.0165
     35 C         141.3290  138.5596  158.0202 C.3     1  UNL1        0.0576
     36 C         141.6301  137.3112  157.2452 C.3     1  UNL1        0.0165
     37 C         140.7363  136.8965  156.1143 C.3     1  UNL1        0.0125
     38 C         138.6474  137.3157  154.6274 C.2     1  UNL1        0.3164
     39 O         139.2424  136.9008  153.3145 O.2     1  UNL1       -0.2501
     40 O         137.1584  137.3158  154.8094 O.3     1  UNL1       -0.4485
     41 C         136.0380  139.6580  154.7165 C.3     1  UNL1        0.0513
     42 C         136.3147  138.3246  154.0878 C.3     1  UNL1        0.2086
@<TRIPOS>BOND
     1    41    42    1
     2    42    40    1
     3    40    38    1
     4    38    39    2
     5    32    38    1
     6    32    33    1
     7    33    34    1
     8    34    35    1
     9    35    28    1
    10    28    29    1
    11    29    30    1
    12    30    24    1
    13    24    25   am
    14    25    26    2
    15    25    23    1
    16    23     1    1
    17     1     3    1
    18     3     4    2
    19     4     5    1
    20     5    16    1
    21    16    17    1
    22    17    18   ar
    23    18    19   ar
    24    19    20   ar
    25    20    21   ar
    26    21    22   ar
    27     5     6    1
    28     6     7   ar
    29     7     8   ar
    30     8     9   ar
    31     9    12    1
    32    12    13    1
    33    12    14    1
    34    12    15    1
    35     9    10   ar
    36    10    11   ar
    37    30    31    1
    38    35    36    1
    39    36    37    1
    40    37    32    1
    41    31    28    1
    42    11     3    1
    43    22    17   ar
    44    11     6   ar
    45    24    27    1
    46     1     2    1
@<TRIPOS>MOLECULE
*****
 42 46 0 0 0
SMALL
GASTEIGER

@<TRIPOS>ATOM
      1 N         138.4874  138.3978  164.5278 N.pl3   1  UNL1       -0.2113
      2 H         137.6454  138.1365  164.9660 H       1  UNL1        0.2927
      3 C         139.0178  139.7912  164.6927 C.2     1  UNL1        0.3159
      4 N         139.2197  140.7934  163.5951 N.2     1  UNL1       -0.0650
      5 C         139.7660  142.0486  164.2082 C.3     1  UNL1        0.2416
      6 C         139.9019  141.8221  165.6848 C.ar    1  UNL1        0.0335
      7 C         140.3869  142.7061  166.7954 C.ar    1  UNL1        0.0001
      8 C         140.4095  142.1948  168.2054 C.ar    1  UNL1        0.0037
      9 C         139.9470  140.7996  168.5048 C.ar    1  UNL1        0.0716
     10 C         139.4620  139.9157  167.3942 C.ar    1  UNL1        0.0110
     11 C         139.4394  140.4270  165.9842 C.ar    1  UNL1        0.0817
     12 C         139.9696  140.2884  169.9148 C.3     1  UNL1        0.4186
     13 F         139.9922  139.7772  171.3248 F       1  UNL1       -0.1659
     14 F         141.4607  140.1440  169.8386 F       1  UNL1       -0.1659
     15 F         138.4786  140.4329  169.9911 F       1  UNL1       -0.1659
     16 C         140.1153  143.3090  163.4738 C.3     1  UNL1        0.0843
     17 C         141.5495  143.6275  163.1706 C.ar    1  UNL1       -0.0175
     18 C         142.2385  144.7462  163.8942 C.ar    1  UNL1       -0.0041
     19 C         143.6726  145.0647  163.5911 C.ar    1  UNL1       -0.0003
     20 C         144.4176  144.2645  162.5642 C.ar    1  UNL1       -0.0000
     21 C         143.7286  143.1458  161.8405 C.ar    1  UNL1       -0.0003
     22 C         142.2945  142.8273  162.1437 C.ar    1  UNL1       -0.0041
     23 C         139.2400  137.4025  163.6952 C.3     1  UNL1        0.2849
     24 N         139.8387  138.2886  161.3275 N.am    1  UNL1       -0.2999
     25 C         140.2634  137.8741  162.7051 C.2     1  UNL1        0.2701
     26 O         141.7113  137.9312  163.0926 O.2     1  UNL1       -0.2706
     27 H         138.8883  138.2511  161.0732 H       1  UNL1        0.1496
     28 N         142.3092  139.4273  158.9371 N.3     1  UNL1       -0.2711
     29 C         140.9686  139.9215  159.3938 C.3     1  UNL1        0.0933
     30 C         140.8620  138.7602  160.3374 C.3     1  UNL1        0.1035
     31 C         142.2026  138.2661  159.8807 C.3     1  UNL1        0.0933
     32 C         145.3793  140.8422  155.9668 C.3     1  UNL1        0.0992
     33 C         144.5060  139.6671  155.6406 C.3     1  UNL1        0.0125
     34 C         143.4826  139.1955  156.6308 C.3     1  UNL1        0.0165
     35 C         143.3326  139.8990  157.9470 C.3     1  UNL1        0.0576
     36 C         144.2059  141.0741  158.2732 C.3     1  UNL1        0.0165
     37 C         145.2292  141.5457  157.2831 C.3     1  UNL1        0.0125
     38 C         146.4026  141.3139  154.9768 C.2     1  UNL1        0.3164
     39 O         146.3467  140.8376  153.5555 O.2     1  UNL1       -0.2501
     40 O         147.4821  142.2621  155.4080 O.3     1  UNL1       -0.4485
     41 C         149.9178  141.9142  154.5736 C.3     1  UNL1        0.0513
     42 C         148.8752  141.7570  155.6405 C.3     1  UNL1        0.2086
@<TRIPOS>BOND
     1    41    42    1
     2    42    40    1
     3    40    38    1
     4    38    39    2
     5    32    38    1
     6    32    33    1
     7    33    34    1
     8    34    35    1
     9    35    28    1
    10    28    29    1
    11    29    30    1
    12    30    24    1
    13    24    25   am
    14    25    26    2
    15    25    23    1
    16    23     1    1
    17     1     3    1
    18     3     4    2
    19     4     5    1
    20     5    16    1
    21    16    17    1
    22    17    18   ar
    23    18    19   ar
    24    19    20   ar
    25    20    21   ar
    26    21    22   ar
    27     5     6    1
    28     6     7   ar
    29     7     8   ar
    30     8     9   ar
    31     9    12    1
    32    12    13    1
    33    12    14    1
    34    12    15    1
    35     9    10   ar
    36    10    11   ar
    37    30    31    1
    38    35    36    1
    39    36    37    1
    40    37    32    1
    41    31    28    1
    42    11     3    1
    43    22    17   ar
    44    11     6   ar
    45    24    27    1
    46     1     2    1
@<TRIPOS>MOLECULE
*****
 42 46 0 0 0
SMALL
GASTEIGER

@<TRIPOS>ATOM
      1 N         137.3012  140.3435  161.4299 N.pl3   1  UNL1       -0.2113
      2 H         136.3824  140.6061  161.1931 H       1  UNL1        0.2927
      3 C         138.0233  141.0550  162.5355 C.2     1  UNL1        0.3159
      4 N         138.6514  142.4143  162.4466 N.2     1  UNL1       -0.0650
      5 C         139.2603  142.7315  163.7803 C.3     1  UNL1        0.2416
      6 C         139.0085  141.5683  164.6933 C.ar    1  UNL1        0.0335
      7 C         139.3767  141.3188  166.1258 C.ar    1  UNL1        0.0001
      8 C         138.9802  140.0332  166.7890 C.ar    1  UNL1        0.0037
      9 C         138.2156  138.9970  166.0197 C.ar    1  UNL1        0.0716
     10 C         137.8475  139.2466  164.5872 C.ar    1  UNL1        0.0110
     11 C         138.2440  140.5322  163.9240 C.ar    1  UNL1        0.0817
     12 C         137.8192  137.7113  166.6829 C.3     1  UNL1        0.4186
     13 F         137.4227  136.4257  167.3462 F       1  UNL1       -0.1659
     14 F         138.5498  136.9398  165.6243 F       1  UNL1       -0.1659
     15 F         137.0885  138.4828  167.7416 F       1  UNL1       -0.1659
     16 C         139.9926  143.9908  164.1381 C.3     1  UNL1        0.0843
     17 C         141.4841  143.9719  164.2966 C.ar    1  UNL1       -0.0175
     18 C         142.1625  142.7614  164.8662 C.ar    1  UNL1       -0.0041
     19 C         143.6539  142.7424  165.0248 C.ar    1  UNL1       -0.0003
     20 C         144.4670  143.9340  164.6138 C.ar    1  UNL1       -0.0000
     21 C         143.7886  145.1446  164.0443 C.ar    1  UNL1       -0.0003
     22 C         142.2972  145.1635  163.8857 C.ar    1  UNL1       -0.0041
     23 C         137.9790  139.2318  160.6850 C.3     1  UNL1        0.2849
     24 N         140.3709  140.2167  160.4432 N.am    1  UNL1       -0.2999
     25 C         139.1860  139.5203  159.8424 C.2     1  UNL1        0.2701
     26 O         139.2080  139.1124  158.3991 O.2     1  UNL1       -0.2706
     27 H         140.3565  140.4844  161.3905 H       1  UNL1        0.1496
     28 N         143.2848  140.9133  158.4089 N.3     1  UNL1       -0.2711
     29 C         141.9188  141.5173  158.5472 C.3     1  UNL1        0.0933
     30 C         141.5779  140.5052  159.6006 C.3     1  UNL1        0.1035
     31 C         142.9439  139.9012  159.4622 C.3     1  UNL1        0.0933
     32 C         146.9057  141.7788  155.8811 C.3     1  UNL1        0.0992
     33 C         146.0242  140.6102  155.5534 C.3     1  UNL1        0.0125
     34 C         144.8172  140.3217  156.3960 C.3     1  UNL1        0.0165
     35 C         144.4918  141.2018  157.5663 C.3     1  UNL1        0.0576
     36 C         145.3733  142.3703  157.8940 C.3     1  UNL1        0.0165
     37 C         146.5802  142.6588  157.0514 C.3     1  UNL1        0.0125
     38 C         148.1127  142.0674  155.0386 C.2     1  UNL1        0.3164
     39 O         149.4196  141.3985  155.3462 O.2     1  UNL1       -0.2501
     40 O         148.0128  143.0249  153.8882 O.3     1  UNL1       -0.4485
     41 C         145.9252  142.9533  152.3432 C.3     1  UNL1        0.0513
     42 C         147.3573  142.5951  152.6093 C.3     1  UNL1        0.2086
@<TRIPOS>BOND
     1    41    42    1
     2    42    40    1
     3    40    38    1
     4    38    39    2
     5    32    38    1
     6    32    33    1
     7    33    34    1
     8    34    35    1
     9    35    28    1
    10    28    29    1
    11    29    30    1
    12    30    24    1
    13    24    25   am
    14    25    26    2
    15    25    23    1
    16    23     1    1
    17     1     3    1
    18     3     4    2
    19     4     5    1
    20     5    16    1
    21    16    17    1
    22    17    18   ar
    23    18    19   ar
    24    19    20   ar
    25    20    21   ar
    26    21    22   ar
    27     5     6    1
    28     6     7   ar
    29     7     8   ar
    30     8     9   ar
    31     9    12    1
    32    12    13    1
    33    12    14    1
    34    12    15    1
    35     9    10   ar
    36    10    11   ar
    37    30    31    1
    38    35    36    1
    39    36    37    1
    40    37    32    1
    41    31    28    1
    42    11     3    1
    43    22    17   ar
    44    11     6   ar
    45    24    27    1
    46     1     2    1
@<TRIPOS>MOLECULE
*****
 42 46 0 0 0
SMALL
GASTEIGER

@<TRIPOS>ATOM
      1 N         138.0919  139.1699  162.9156 N.pl3   1  UNL1       -0.2113
      2 H         137.1960  139.3857  162.5693 H       1  UNL1        0.2927
      3 C         138.6034  139.8523  164.1496 C.2     1  UNL1        0.3159
      4 N         138.8970  139.1927  165.4644 N.2     1  UNL1       -0.0650
      5 C         139.3862  140.2469  166.4128 C.3     1  UNL1        0.2416
      6 C         139.3948  141.5580  165.6841 C.ar    1  UNL1        0.0335
      7 C         139.7808  142.9424  166.1136 C.ar    1  UNL1        0.0001
      8 C         139.6829  144.0829  165.1443 C.ar    1  UNL1        0.0037
      9 C         139.1991  143.8391  163.7455 C.ar    1  UNL1        0.0716
     10 C         138.8132  142.4547  163.3161 C.ar    1  UNL1        0.0110
     11 C         138.9111  141.3141  164.2854 C.ar    1  UNL1        0.0817
     12 C         139.1013  144.9797  162.7762 C.3     1  UNL1        0.4186
     13 F         139.0035  146.1202  161.8069 F       1  UNL1       -0.1659
     14 F         137.6093  144.8278  162.7480 F       1  UNL1       -0.1659
     15 F         140.5933  145.1315  162.8043 F       1  UNL1       -0.1659
     16 C         139.7949  140.0284  167.8394 C.3     1  UNL1        0.0843
     17 C         140.7049  141.0094  168.5176 C.ar    1  UNL1       -0.0175
     18 C         140.1568  141.9537  169.5460 C.ar    1  UNL1       -0.0041
     19 C         141.0666  142.9346  170.2242 C.ar    1  UNL1       -0.0003
     20 C         142.5247  142.9711  169.8738 C.ar    1  UNL1       -0.0000
     21 C         143.0728  142.0267  168.8454 C.ar    1  UNL1       -0.0003
     22 C         142.1629  141.0458  168.1672 C.ar    1  UNL1       -0.0041
     23 C         138.9456  138.1586  162.2093 C.3     1  UNL1        0.2849
     24 N         141.1903  139.2375  161.4696 N.am    1  UNL1       -0.2999
     25 C         139.8803  138.5956  161.1206 C.2     1  UNL1        0.2701
     26 O         139.5050  138.3906  159.6828 O.2     1  UNL1       -0.2706
     27 H         141.4366  139.3720  162.4133 H       1  UNL1        0.1496
     28 N         143.4468  140.2925  158.8411 N.3     1  UNL1       -0.2711
     29 C         142.1116  140.7570  159.3425 C.3     1  UNL1        0.0933
     30 C         142.1250  139.6744  160.3809 C.3     1  UNL1        0.1035
     31 C         143.4601  139.2100  159.8793 C.3     1  UNL1        0.0933
     32 C         146.2509  141.6033  155.5748 C.3     1  UNL1        0.0992
     33 C         145.3655  140.4101  155.3691 C.3     1  UNL1        0.0125
     34 C         144.4308  139.9732  156.4578 C.3     1  UNL1        0.0165
     35 C         144.3815  140.7294  157.7523 C.3     1  UNL1        0.0576
     36 C         145.2669  141.9226  157.9580 C.3     1  UNL1        0.0165
     37 C         146.2015  142.3596  156.8693 C.3     1  UNL1        0.0125
     38 C         147.1856  142.0404  154.4861 C.2     1  UNL1        0.3164
     39 O         148.6657  141.8620  154.6518 O.2     1  UNL1       -0.2501
     40 O         146.6402  142.6559  153.2316 O.3     1  UNL1       -0.4485
     41 C         147.1730  145.1966  153.3357 C.3     1  UNL1        0.0513
     42 C         146.1744  144.0817  153.2367 C.3     1  UNL1        0.2086
@<TRIPOS>BOND
     1    41    42    1
     2    42    40    1
     3    40    38    1
     4    38    39    2
     5    32    38    1
     6    32    33    1
     7    33    34    1
     8    34    35    1
     9    35    28    1
    10    28    29    1
    11    29    30    1
    12    30    24    1
    13    24    25   am
    14    25    26    2
    15    25    23    1
    16    23     1    1
    17     1     3    1
    18     3     4    2
    19     4     5    1
    20     5    16    1
    21    16    17    1
    22    17    18   ar
    23    18    19   ar
    24    19    20   ar
    25    20    21   ar
    26    21    22   ar
    27     5     6    1
    28     6     7   ar
    29     7     8   ar
    30     8     9   ar
    31     9    12    1
    32    12    13    1
    33    12    14    1
    34    12    15    1
    35     9    10   ar
    36    10    11   ar
    37    30    31    1
    38    35    36    1
    39    36    37    1
    40    37    32    1
    41    31    28    1
    42    11     3    1
    43    22    17   ar
    44    11     6   ar
    45    24    27    1
    46     1     2    1
@<TRIPOS>MOLECULE
*****
 42 46 0 0 0
SMALL
GASTEIGER

@<TRIPOS>ATOM
      1 N         138.7138  144.4177  164.2019 N.pl3   1  UNL1       -0.2113
      2 H         138.4709  145.2148  164.7263 H       1  UNL1        0.2927
      3 C         140.0116  143.7133  164.4657 C.2     1  UNL1        0.3159
      4 N         141.0303  143.3268  163.4348 N.2     1  UNL1       -0.0650
      5 C         142.1668  142.6464  164.1387 C.3     1  UNL1        0.2416
      6 C         141.8505  142.6124  165.6045 C.ar    1  UNL1        0.0335
      7 C         142.6032  142.0662  166.7814 C.ar    1  UNL1        0.0001
      8 C         142.0239  142.1794  168.1603 C.ar    1  UNL1        0.0037
      9 C         140.6919  142.8389  168.3624 C.ar    1  UNL1        0.0716
     10 C         139.9391  143.3850  167.1856 C.ar    1  UNL1        0.0110
     11 C         140.5184  143.2718  165.8066 C.ar    1  UNL1        0.0817
     12 C         140.1126  142.9521  169.7415 C.3     1  UNL1        0.4186
     13 F         139.5334  143.0653  171.1205 F       1  UNL1       -0.1659
     14 F         139.4646  141.6090  169.5796 F       1  UNL1       -0.1659
     15 F         140.7606  144.2951  169.9034 F       1  UNL1       -0.1659
     16 C         143.4027  142.0965  163.4905 C.3     1  UNL1        0.0843
     17 C         143.3734  140.7407  162.8492 C.ar    1  UNL1       -0.0175
     18 C         144.1179  140.5001  161.5694 C.ar    1  UNL1       -0.0041
     19 C         144.0887  139.1444  160.9282 C.ar    1  UNL1       -0.0003
     20 C         143.3149  138.0293  161.5668 C.ar    1  UNL1       -0.0000
     21 C         142.5704  138.2699  162.8465 C.ar    1  UNL1       -0.0003
     22 C         142.5996  139.6255  163.4878 C.ar    1  UNL1       -0.0041
     23 C         137.7860  143.9077  163.1392 C.3     1  UNL1        0.2849
     24 N         139.2117  143.0293  161.1529 N.am    1  UNL1       -0.2999
     25 C         138.2153  142.7814  162.2464 C.2     1  UNL1        0.2701
     26 O         137.6482  141.4073  162.4470 O.2     1  UNL1       -0.2706
     27 H         139.5839  143.9311  161.0212 H       1  UNL1        0.1496
     28 N         140.2480  140.3102  158.9972 N.3     1  UNL1       -0.2711
     29 C         139.6392  141.6636  158.7792 C.3     1  UNL1        0.0933
     30 C         139.6410  141.9030  160.2600 C.3     1  UNL1        0.1035
     31 C         140.2498  140.5496  160.4780 C.3     1  UNL1        0.0933
     32 C         141.5359  136.9313  156.3186 C.3     1  UNL1        0.0992
     33 C         140.0771  137.2271  156.5041 C.3     1  UNL1        0.0125
     34 C         139.6478  138.3534  157.3970 C.3     1  UNL1        0.0165
     35 C         140.6773  139.1839  158.1044 C.3     1  UNL1        0.0576
     36 C         142.1361  138.8881  157.9189 C.3     1  UNL1        0.0165
     37 C         142.5654  137.7619  157.0261 C.3     1  UNL1        0.0125
     38 C         141.9653  135.8051  155.4258 C.2     1  UNL1        0.3164
     39 O         142.0325  136.0086  153.9412 O.2     1  UNL1       -0.2501
     40 O         142.3275  134.4752  156.0177 O.3     1  UNL1       -0.4485
     41 C         143.9638  133.6924  157.8777 C.3     1  UNL1        0.0513
     42 C         143.7270  134.2226  156.4946 C.3     1  UNL1        0.2086
@<TRIPOS>BOND
     1    41    42    1
     2    42    40    1
     3    40    38    1
     4    38    39    2
     5    32    38    1
     6    32    33    1
     7    33    34    1
     8    34    35    1
     9    35    28    1
    10    28    29    1
    11    29    30    1
    12    30    24    1
    13    24    25   am
    14    25    26    2
    15    25    23    1
    16    23     1    1
    17     1     3    1
    18     3     4    2
    19     4     5    1
    20     5    16    1
    21    16    17    1
    22    17    18   ar
    23    18    19   ar
    24    19    20   ar
    25    20    21   ar
    26    21    22   ar
    27     5     6    1
    28     6     7   ar
    29     7     8   ar
    30     8     9   ar
    31     9    12    1
    32    12    13    1
    33    12    14    1
    34    12    15    1
    35     9    10   ar
    36    10    11   ar
    37    30    31    1
    38    35    36    1
    39    36    37    1
    40    37    32    1
    41    31    28    1
    42    11     3    1
    43    22    17   ar
    44    11     6   ar
    45    24    27    1
    46     1     2    1
