@<TRIPOS>MOLECULE
*****
 42 44 0 0 0
SMALL
GASTEIGER

@<TRIPOS>ATOM
      1 C         137.6364  141.7437  157.3930 C.ar    1  UNL1        0.0597
      2 C         136.5642  140.9923  156.6609 C.ar    1  UNL1        0.0422
      3 C         135.9107  141.6015  155.4560 C.ar    1  UNL1        0.1485
      4 C         136.3293  142.9622  154.9833 C.ar    1  UNL1        0.0743
      5 C         137.4013  143.7136  155.7154 C.ar    1  UNL1        0.1417
      6 C         138.0549  143.1043  156.9203 C.ar    1  UNL1        0.0416
      7 N         138.4971  139.6506  158.6689 N.am    1  UNL1       -0.2646
      8 C         138.2899  141.1345  158.5979 C.2     1  UNL1        0.2508
      9 O         138.7362  142.0092  159.7319 O.2     1  UNL1       -0.2698
     10 H         138.2042  139.0765  157.9247 H       1  UNL1        0.1566
     11 C         140.4577  137.8229  162.2835 C.ar    1  UNL1        0.0905
     12 C         138.9683  137.9959  162.2452 C.ar    1  UNL1        0.1156
     13 N         138.3147  138.6051  161.0403 N.ar    1  UNL1       -0.2261
     14 C         139.1507  139.0414  159.8738 C.ar    1  UNL1        0.1538
     15 C         140.6401  138.8684  159.9121 C.ar    1  UNL1        0.1328
     16 N         141.2936  138.2591  161.1170 N.ar    1  UNL1       -0.2430
     17 C         141.1112  137.2136  163.4884 C.3     1  UNL1        0.1631
     18 P         141.4451  138.0698  164.6739 P.3     1  UNL1        0.3493
     19 O         141.7791  138.9260  165.8595 O.2     1  UNL1       -0.2573
     20 O         140.0715  137.8362  165.2294 O.3     1  UNL1       -0.2938
     21 C         137.9937  138.7028  166.5263 C.3     1  UNL1        0.0352
     22 C         139.3354  138.9552  165.9048 C.3     1  UNL1        0.1515
     23 O         142.8187  138.3033  164.1184 O.3     1  UNL1       -0.2938
     24 C         143.8336  139.0616  164.9215 C.3     1  UNL1        0.1515
     25 C         144.9487  139.7870  164.2283 C.3     1  UNL1        0.0352
     26 O         134.8386  140.8501  154.7239 O.3     1  UNL1       -0.4534
     27 C         133.5812  140.4513  155.4379 C.ar    1  UNL1        0.1454
     28 C         133.5403  139.1785  156.2306 C.ar    1  UNL1        0.0388
     29 C         132.2830  138.7796  156.9445 C.ar    1  UNL1        0.0215
     30 C         131.0664  139.6535  156.8659 C.ar    1  UNL1        0.1059
     31 C         131.1072  140.9263  156.0732 C.ar    1  UNL1        0.0215
     32 C         132.3646  141.3252  155.3592 C.ar    1  UNL1        0.0388
     33 S         129.8089  139.2546  157.5799 S.O2    1  UNL1        0.0105
     34 C         128.5515  138.8557  158.2939 C.3     1  UNL1        0.1816
     35 O         129.0174  140.1777  156.7016 O.2     1  UNL1       -0.1686
     36 O         130.6005  138.3315  158.4581 O.2     1  UNL1       -0.1686
     37 O         137.8199  145.0742  155.2427 O.3     1  UNL1       -0.4765
     38 C         139.2648  145.3569  154.9559 C.3     1  UNL1        0.1954
     39 C         140.0506  144.4290  154.0774 C.3     1  UNL1        0.0500
     40 C         139.9239  146.5674  155.5476 C.3     1  UNL1        0.1855
     41 O         139.0946  147.6157  156.2283 O.3     1  UNL1       -0.3473
     42 C         138.8150  148.9169  155.5366 C.3     1  UNL1        0.1743
@<TRIPOS>BOND
     1    21    22    1
     2    22    20    1
     3    20    18    1
     4    18    19    2
     5    18    17    1
     6    17    11    1
     7    11    12   ar
     8    12    13   ar
     9    13    14   ar
    10    14     7    1
    11     7     8   am
    12     8     9    2
    13     8     1    1
    14     1     2   ar
    15     2     3   ar
    16     3    26    1
    17    26    27    1
    18    27    28   ar
    19    28    29   ar
    20    29    30   ar
    21    30    33    1
    22    33    34    1
    23    33    35    2
    24    33    36    2
    25    30    31   ar
    26    31    32   ar
    27     3     4   ar
    28     4     5   ar
    29     5    37    1
    30    37    38    1
    31    38    39    1
    32    38    40    1
    33    40    41    1
    34    41    42    1
    35     5     6   ar
    36    14    15   ar
    37    15    16   ar
    38    18    23    1
    39    23    24    1
    40    24    25    1
    41    16    11   ar
    42     6     1   ar
    43    32    27   ar
    44     7    10    1
@<TRIPOS>MOLECULE
*****
 42 44 0 0 0
SMALL
GASTEIGER

@<TRIPOS>ATOM
      1 C         143.4191  140.3322  160.0074 C.ar    1  UNL1        0.0597
      2 C         144.1061  140.2979  161.3404 C.ar    1  UNL1        0.0422
      3 C         144.2421  141.5555  162.1466 C.ar    1  UNL1        0.1485
      4 C         143.6910  142.8474  161.6198 C.ar    1  UNL1        0.0743
      5 C         143.0040  142.8816  160.2868 C.ar    1  UNL1        0.1417
      6 C         142.8681  141.6240  159.4806 C.ar    1  UNL1        0.0416
      7 N         143.2610  139.1429  157.7029 N.am    1  UNL1       -0.2646
      8 C         143.2831  139.0746  159.2011 C.2     1  UNL1        0.2508
      9 O         143.1693  137.7486  159.8933 O.2     1  UNL1       -0.2698
     10 H         143.3357  140.0132  157.2487 H       1  UNL1        0.1566
     11 C         142.8531  135.3702  155.2842 C.ar    1  UNL1        0.0905
     12 C         144.1238  136.1650  155.2255 C.ar    1  UNL1        0.1156
     13 N         144.2598  137.4226  156.0317 N.ar    1  UNL1       -0.2261
     14 C         143.1250  137.8853  156.8967 C.ar    1  UNL1        0.1538
     15 C         141.8543  137.0905  156.9554 C.ar    1  UNL1        0.1328
     16 N         141.7184  135.8329  156.1492 N.ar    1  UNL1       -0.2430
     17 C         142.7172  134.1126  154.4780 C.3     1  UNL1        0.1631
     18 P         142.6204  132.7851  155.1696 P.3     1  UNL1        0.3493
     19 O         142.5237  131.4575  155.8613 O.2     1  UNL1       -0.2573
     20 O         141.3259  132.5113  154.4631 O.3     1  UNL1       -0.2938
     21 C         139.8014  130.5597  153.6773 C.3     1  UNL1        0.0352
     22 C         140.5546  131.2615  154.7683 C.3     1  UNL1        0.1515
     23 O         143.9150  133.0588  155.8761 O.3     1  UNL1       -0.2938
     24 C         144.6722  131.9337  156.5170 C.3     1  UNL1        0.1515
     25 C         145.2934  132.1222  157.8693 C.3     1  UNL1        0.0352
     26 O         144.9290  141.5213  163.4796 O.3     1  UNL1       -0.4534
     27 C         144.1521  141.1748  164.7151 C.ar    1  UNL1        0.1454
     28 C         143.6999  142.2607  165.6458 C.ar    1  UNL1        0.0388
     29 C         142.9230  141.9142  166.8813 C.ar    1  UNL1        0.0215
     30 C         142.5983  140.4819  167.1860 C.ar    1  UNL1        0.1059
     31 C         143.0505  139.3960  166.2552 C.ar    1  UNL1        0.0215
     32 C         143.8274  139.7424  165.0198 C.ar    1  UNL1        0.0388
     33 S         141.8214  140.1354  168.4215 S.O2    1  UNL1        0.0105
     34 C         141.0445  139.7889  169.6569 C.3     1  UNL1        0.1816
     35 O         142.9377  139.2408  168.8726 O.2     1  UNL1       -0.1686
     36 O         140.7051  141.0299  167.9704 O.2     1  UNL1       -0.1686
     37 O         142.4530  144.1734  159.7601 O.3     1  UNL1       -0.4765
     38 C         140.9836  144.4581  159.8595 C.3     1  UNL1        0.1954
     39 C         140.2538  145.0514  158.6909 C.3     1  UNL1        0.0500
     40 C         140.2440  144.1495  161.1275 C.3     1  UNL1        0.1855
     41 O         138.7659  143.8967  161.0910 O.3     1  UNL1       -0.3473
     42 C         138.2406  142.4983  161.2265 C.3     1  UNL1        0.1743
@<TRIPOS>BOND
     1    21    22    1
     2    22    20    1
     3    20    18    1
     4    18    19    2
     5    18    17    1
     6    17    11    1
     7    11    12   ar
     8    12    13   ar
     9    13    14   ar
    10    14     7    1
    11     7     8   am
    12     8     9    2
    13     8     1    1
    14     1     2   ar
    15     2     3   ar
    16     3    26    1
    17    26    27    1
    18    27    28   ar
    19    28    29   ar
    20    29    30   ar
    21    30    33    1
    22    33    34    1
    23    33    35    2
    24    33    36    2
    25    30    31   ar
    26    31    32   ar
    27     3     4   ar
    28     4     5   ar
    29     5    37    1
    30    37    38    1
    31    38    39    1
    32    38    40    1
    33    40    41    1
    34    41    42    1
    35     5     6   ar
    36    14    15   ar
    37    15    16   ar
    38    18    23    1
    39    23    24    1
    40    24    25    1
    41    16    11   ar
    42     6     1   ar
    43    32    27   ar
    44     7    10    1
@<TRIPOS>MOLECULE
*****
 42 44 0 0 0
SMALL
GASTEIGER

@<TRIPOS>ATOM
      1 C         137.6722  141.7902  157.3711 C.ar    1  UNL1        0.0597
      2 C         136.6102  141.0306  156.6327 C.ar    1  UNL1        0.0422
      3 C         135.9457  141.6427  155.4353 C.ar    1  UNL1        0.1485
      4 C         136.3433  143.0143  154.9763 C.ar    1  UNL1        0.0743
      5 C         137.4053  143.7738  155.7147 C.ar    1  UNL1        0.1417
      6 C         138.0698  143.1617  156.9121 C.ar    1  UNL1        0.0416
      7 N         138.4857  139.6886  158.6640 N.am    1  UNL1       -0.2646
      8 C         138.3367  141.1781  158.5685 C.2     1  UNL1        0.2508
      9 O         138.8522  142.0556  159.6705 O.2     1  UNL1       -0.2698
     10 H         138.1474  139.1127  157.9408 H       1  UNL1        0.1566
     11 C         140.4791  137.8524  162.2563 C.ar    1  UNL1        0.0905
     12 C         139.0101  138.1539  162.2861 C.ar    1  UNL1        0.1156
     13 N         138.3456  138.7660  161.0887 N.ar    1  UNL1       -0.2261
     14 C         139.1502  139.0765  159.8614 C.ar    1  UNL1        0.1538
     15 C         140.6192  138.7750  159.8316 C.ar    1  UNL1        0.1328
     16 N         141.2837  138.1629  161.0290 N.ar    1  UNL1       -0.2430
     17 C         141.1436  137.2403  163.4537 C.3     1  UNL1        0.1631
     18 P         141.6239  138.1148  164.5737 P.3     1  UNL1        0.3493
     19 O         142.1041  138.9894  165.6939 O.2     1  UNL1       -0.2573
     20 O         142.9478  138.2689  163.8857 O.3     1  UNL1       -0.2938
     21 C         143.2467  140.6038  162.7861 C.3     1  UNL1        0.0352
     22 C         143.6203  139.6091  163.8448 C.3     1  UNL1        0.1515
     23 O         140.2999  137.9607  165.2618 O.3     1  UNL1       -0.2938
     24 C         139.6578  139.1425  165.9260 C.3     1  UNL1        0.1515
     25 C         138.1724  139.3339  165.8430 C.3     1  UNL1        0.0352
     26 O         134.8837  140.8832  154.6969 O.3     1  UNL1       -0.4534
     27 C         133.6255  140.4740  155.4038 C.ar    1  UNL1        0.1454
     28 C         132.4260  141.3744  155.3815 C.ar    1  UNL1        0.0388
     29 C         131.1678  140.9653  156.0883 C.ar    1  UNL1        0.0215
     30 C         131.1092  139.6558  156.8174 C.ar    1  UNL1        0.1059
     31 C         132.3087  138.7554  156.8397 C.ar    1  UNL1        0.0215
     32 C         133.5668  139.1645  156.1329 C.ar    1  UNL1        0.0388
     33 S         129.8510  139.2466  157.5243 S.O2    1  UNL1        0.0105
     34 C         128.5929  138.8374  158.2311 C.3     1  UNL1        0.1816
     35 O         129.0531  140.1398  156.6212 O.2     1  UNL1       -0.1686
     36 O         130.6489  138.3534  158.4273 O.2     1  UNL1       -0.1686
     37 O         137.8028  145.1454  155.2556 O.3     1  UNL1       -0.4765
     38 C         139.2478  145.5479  155.2588 C.3     1  UNL1        0.1954
     39 C         140.2038  144.9185  154.2892 C.3     1  UNL1        0.0500
     40 C         139.7368  146.5796  156.2316 C.3     1  UNL1        0.1855
     41 O         140.3639  146.1528  157.5257 O.3     1  UNL1       -0.3473
     42 C         141.8363  145.8738  157.5895 C.3     1  UNL1        0.1743
@<TRIPOS>BOND
     1    21    22    1
     2    22    20    1
     3    20    18    1
     4    18    19    2
     5    18    17    1
     6    17    11    1
     7    11    12   ar
     8    12    13   ar
     9    13    14   ar
    10    14     7    1
    11     7     8   am
    12     8     9    2
    13     8     1    1
    14     1     2   ar
    15     2     3   ar
    16     3    26    1
    17    26    27    1
    18    27    28   ar
    19    28    29   ar
    20    29    30   ar
    21    30    33    1
    22    33    34    1
    23    33    35    2
    24    33    36    2
    25    30    31   ar
    26    31    32   ar
    27     3     4   ar
    28     4     5   ar
    29     5    37    1
    30    37    38    1
    31    38    39    1
    32    38    40    1
    33    40    41    1
    34    41    42    1
    35     5     6   ar
    36    14    15   ar
    37    15    16   ar
    38    18    23    1
    39    23    24    1
    40    24    25    1
    41    16    11   ar
    42     6     1   ar
    43    32    27   ar
    44     7    10    1
@<TRIPOS>MOLECULE
*****
 42 44 0 0 0
SMALL
GASTEIGER

@<TRIPOS>ATOM
      1 C         138.7641  140.0619  160.6511 C.ar    1  UNL1        0.0597
      2 C         138.8982  139.1276  161.8169 C.ar    1  UNL1        0.0422
      3 C         138.5362  139.5927  163.1963 C.ar    1  UNL1        0.1485
      4 C         138.0400  140.9921  163.4098 C.ar    1  UNL1        0.0743
      5 C         137.9059  141.9263  162.2440 C.ar    1  UNL1        0.1417
      6 C         138.2680  141.4612  160.8646 C.ar    1  UNL1        0.0416
      7 N         140.4203  138.8751  159.0392 N.am    1  UNL1       -0.2646
      8 C         139.1262  139.5968  159.2717 C.2     1  UNL1        0.2508
      9 O         138.1939  139.8535  158.1249 O.2     1  UNL1       -0.2698
     10 H         141.0322  138.7066  159.7919 H       1  UNL1        0.1566
     11 C         141.5065  137.4797  154.9012 C.ar    1  UNL1        0.0905
     12 C         140.3312  136.8766  155.6116 C.ar    1  UNL1        0.1156
     13 N         139.9691  137.3417  156.9910 N.ar    1  UNL1       -0.2261
     14 C         140.7824  138.4099  157.6598 C.ar    1  UNL1        0.1538
     15 C         141.9577  139.0131  156.9494 C.ar    1  UNL1        0.1328
     16 N         142.3197  138.5480  155.5700 N.ar    1  UNL1       -0.2430
     17 C         141.8685  137.0146  153.5218 C.3     1  UNL1        0.1631
     18 P         141.1472  135.8509  152.9093 P.3     1  UNL1        0.3493
     19 O         140.4258  134.6870  152.2967 O.2     1  UNL1       -0.2573
     20 O         140.1165  136.7851  152.3482 O.3     1  UNL1       -0.2938
     21 C         137.5923  137.2235  152.7802 C.3     1  UNL1        0.0352
     22 C         138.6854  136.3476  152.2436 C.3     1  UNL1        0.1515
     23 O         142.1779  134.9167  153.4704 O.3     1  UNL1       -0.2938
     24 C         141.7548  133.6177  154.0898 C.3     1  UNL1        0.1515
     25 C         141.8544  133.4270  155.5743 C.3     1  UNL1        0.0352
     26 O         138.6703  138.6584  164.3621 O.3     1  UNL1       -0.4534
     27 C         139.5223  139.0412  165.5358 C.ar    1  UNL1        0.1454
     28 C         138.8792  139.4633  166.8235 C.ar    1  UNL1        0.0388
     29 C         139.7312  139.8461  167.9972 C.ar    1  UNL1        0.0215
     30 C         141.2263  139.8066  167.8832 C.ar    1  UNL1        0.1059
     31 C         141.8694  139.3845  166.5955 C.ar    1  UNL1        0.0215
     32 C         141.0175  139.0018  165.4218 C.ar    1  UNL1        0.0388
     33 S         142.0784  140.1894  169.0569 S.O2    1  UNL1        0.0105
     34 C         142.9304  140.5721  170.2306 C.3     1  UNL1        0.1816
     35 O         142.9682  139.0105  168.7955 O.2     1  UNL1       -0.1686
     36 O         141.1886  141.3683  169.3184 O.2     1  UNL1       -0.1686
     37 O         137.4098  143.3257  162.4575 O.3     1  UNL1       -0.4765
     38 C         138.1555  144.2550  163.3687 C.3     1  UNL1        0.1954
     39 C         137.7432  144.3882  164.8048 C.3     1  UNL1        0.0500
     40 C         139.3134  145.0510  162.8439 C.3     1  UNL1        0.1855
     41 O         140.7026  144.4895  162.9138 O.3     1  UNL1       -0.3473
     42 C         141.8175  145.3152  163.4841 C.3     1  UNL1        0.1743
@<TRIPOS>BOND
     1    21    22    1
     2    22    20    1
     3    20    18    1
     4    18    19    2
     5    18    17    1
     6    17    11    1
     7    11    12   ar
     8    12    13   ar
     9    13    14   ar
    10    14     7    1
    11     7     8   am
    12     8     9    2
    13     8     1    1
    14     1     2   ar
    15     2     3   ar
    16     3    26    1
    17    26    27    1
    18    27    28   ar
    19    28    29   ar
    20    29    30   ar
    21    30    33    1
    22    33    34    1
    23    33    35    2
    24    33    36    2
    25    30    31   ar
    26    31    32   ar
    27     3     4   ar
    28     4     5   ar
    29     5    37    1
    30    37    38    1
    31    38    39    1
    32    38    40    1
    33    40    41    1
    34    41    42    1
    35     5     6   ar
    36    14    15   ar
    37    15    16   ar
    38    18    23    1
    39    23    24    1
    40    24    25    1
    41    16    11   ar
    42     6     1   ar
    43    32    27   ar
    44     7    10    1
@<TRIPOS>MOLECULE
*****
 42 44 0 0 0
SMALL
GASTEIGER

@<TRIPOS>ATOM
      1 C         139.5364  140.3019  160.4374 C.ar    1  UNL1        0.0597
      2 C         138.8141  140.1032  161.7370 C.ar    1  UNL1        0.0422
      3 C         138.2380  141.2827  162.4628 C.ar    1  UNL1        0.1485
      4 C         138.3842  142.6610  161.8890 C.ar    1  UNL1        0.0743
      5 C         139.1065  142.8596  160.5895 C.ar    1  UNL1        0.1417
      6 C         139.6825  141.6801  159.8636 C.ar    1  UNL1        0.0416
      7 N         140.4114  139.2172  158.2447 N.am    1  UNL1       -0.2646
      8 C         140.1124  139.1223  159.7115 C.2     1  UNL1        0.2508
      9 O         140.3895  137.8479  160.4526 O.2     1  UNL1       -0.2698
     10 H         140.2296  140.0536  157.7584 H       1  UNL1        0.1566
     11 C         142.1396  135.6785  156.0673 C.ar    1  UNL1        0.0905
     12 C         142.9615  136.4035  157.0914 C.ar    1  UNL1        0.1156
     13 N         142.3855  137.5831  157.8172 N.ar    1  UNL1       -0.2261
     14 C         140.9875  138.0376  157.5189 C.ar    1  UNL1        0.1538
     15 C         140.1656  137.3126  156.4948 C.ar    1  UNL1        0.1328
     16 N         140.7416  136.1331  155.7690 N.ar    1  UNL1       -0.2430
     17 C         142.7157  134.4990  155.3415 C.3     1  UNL1        0.1631
     18 P         142.0302  133.1667  155.4125 P.3     1  UNL1        0.3493
     19 O         141.3446  131.8344  155.4836 O.2     1  UNL1       -0.2573
     20 O         141.4821  133.3751  154.0319 O.3     1  UNL1       -0.2938
     21 C         142.4812  131.8647  152.1689 C.3     1  UNL1        0.0352
     22 C         141.3521  132.2123  153.0931 C.3     1  UNL1        0.1515
     23 O         142.5782  132.9583  156.7931 O.3     1  UNL1       -0.2938
     24 C         144.0480  132.7334  156.9906 C.3     1  UNL1        0.1515
     25 C         144.7571  131.6729  156.2014 C.3     1  UNL1        0.0352
     26 O         137.5158  141.0841  163.7623 O.3     1  UNL1       -0.4534
     27 C         138.2918  140.8270  165.0200 C.ar    1  UNL1        0.1454
     28 C         138.0710  139.5598  165.7917 C.ar    1  UNL1        0.0388
     29 C         138.8470  139.3026  167.0493 C.ar    1  UNL1        0.0215
     30 C         139.8437  140.3127  167.5353 C.ar    1  UNL1        0.1059
     31 C         140.0645  141.5799  166.7637 C.ar    1  UNL1        0.0215
     32 C         139.2886  141.8370  165.5060 C.ar    1  UNL1        0.0388
     33 S         140.6198  140.0555  168.7930 S.O2    1  UNL1        0.0105
     34 C         141.3958  139.7984  170.0506 C.3     1  UNL1        0.1816
     35 O         139.3371  139.8434  169.5411 O.2     1  UNL1       -0.1686
     36 O         141.9024  140.2677  168.0449 O.2     1  UNL1       -0.1686
     37 O         139.2527  144.2378  160.0157 O.3     1  UNL1       -0.4765
     38 C         140.1733  144.4733  158.8551 C.3     1  UNL1        0.1954
     39 C         139.7203  144.1529  157.4615 C.3     1  UNL1        0.0500
     40 C         141.5468  145.0292  159.0882 C.3     1  UNL1        0.1855
     41 O         142.6515  144.1279  159.5544 O.3     1  UNL1       -0.3473
     42 C         143.0201  142.9159  158.7513 C.3     1  UNL1        0.1743
@<TRIPOS>BOND
     1    21    22    1
     2    22    20    1
     3    20    18    1
     4    18    19    2
     5    18    17    1
     6    17    11    1
     7    11    12   ar
     8    12    13   ar
     9    13    14   ar
    10    14     7    1
    11     7     8   am
    12     8     9    2
    13     8     1    1
    14     1     2   ar
    15     2     3   ar
    16     3    26    1
    17    26    27    1
    18    27    28   ar
    19    28    29   ar
    20    29    30   ar
    21    30    33    1
    22    33    34    1
    23    33    35    2
    24    33    36    2
    25    30    31   ar
    26    31    32   ar
    27     3     4   ar
    28     4     5   ar
    29     5    37    1
    30    37    38    1
    31    38    39    1
    32    38    40    1
    33    40    41    1
    34    41    42    1
    35     5     6   ar
    36    14    15   ar
    37    15    16   ar
    38    18    23    1
    39    23    24    1
    40    24    25    1
    41    16    11   ar
    42     6     1   ar
    43    32    27   ar
    44     7    10    1
@<TRIPOS>MOLECULE
*****
 42 44 0 0 0
SMALL
GASTEIGER

@<TRIPOS>ATOM
      1 C         139.5747  140.2753  160.4400 C.ar    1  UNL1        0.0597
      2 C         138.8348  140.0704  161.7286 C.ar    1  UNL1        0.0422
      3 C         138.2408  141.2454  162.4474 C.ar    1  UNL1        0.1485
      4 C         138.3867  142.6252  161.8775 C.ar    1  UNL1        0.0743
      5 C         139.1266  142.8301  160.5889 C.ar    1  UNL1        0.1417
      6 C         139.7206  141.6551  159.8701 C.ar    1  UNL1        0.0416
      7 N         140.4363  139.1797  158.2474 N.am    1  UNL1       -0.2646
      8 C         140.1687  139.1004  159.7212 C.2     1  UNL1        0.2508
      9 O         140.4951  137.8460  160.4763 O.2     1  UNL1       -0.2698
     10 H         140.2221  140.0030  157.7519 H       1  UNL1        0.1566
     11 C         142.2184  135.6548  156.0911 C.ar    1  UNL1        0.0905
     12 C         143.0254  136.3919  157.1184 C.ar    1  UNL1        0.1156
     13 N         142.4314  137.5669  157.8372 N.ar    1  UNL1       -0.2261
     14 C         141.0304  138.0048  157.5287 C.ar    1  UNL1        0.1538
     15 C         140.2233  137.2677  156.5014 C.ar    1  UNL1        0.1328
     16 N         140.8173  136.0927  155.7826 N.ar    1  UNL1       -0.2430
     17 C         142.8124  134.4799  155.3724 C.3     1  UNL1        0.1631
     18 P         142.1723  133.1282  155.4877 P.3     1  UNL1        0.3493
     19 O         141.5322  131.7765  155.6031 O.2     1  UNL1       -0.2573
     20 O         142.5780  133.0593  156.9302 O.3     1  UNL1       -0.2938
     21 C         144.4735  131.3645  157.4636 C.3     1  UNL1        0.0352
     22 C         144.0058  132.7797  157.2952 C.3     1  UNL1        0.1515
     23 O         141.7667  133.1972  154.0453 O.3     1  UNL1       -0.2938
     24 C         141.3191  131.9560  153.3319 C.3     1  UNL1        0.1515
     25 C         140.2326  132.0342  152.3006 C.3     1  UNL1        0.0352
     26 O         137.5009  141.0405  163.7360 O.3     1  UNL1       -0.4534
     27 C         138.2595  140.7745  165.0024 C.ar    1  UNL1        0.1454
     28 C         138.0513  139.4880  165.7452 C.ar    1  UNL1        0.0388
     29 C         138.8100  139.2220  167.0115 C.ar    1  UNL1        0.0215
     30 C         139.7768  140.2423  167.5351 C.ar    1  UNL1        0.1059
     31 C         139.9849  141.5288  166.7922 C.ar    1  UNL1        0.0215
     32 C         139.2263  141.7948  165.5259 C.ar    1  UNL1        0.0388
     33 S         140.5354  139.9763  168.8015 S.O2    1  UNL1        0.0105
     34 C         141.2941  139.7103  170.0678 C.3     1  UNL1        0.1816
     35 O         139.2542  140.0275  169.5798 O.2     1  UNL1       -0.1686
     36 O         141.8166  139.9251  168.0231 O.2     1  UNL1       -0.1686
     37 O         139.2725  144.2099  160.0191 O.3     1  UNL1       -0.4765
     38 C         140.6356  144.8157  159.8606 C.3     1  UNL1        0.1954
     39 C         141.1054  145.2617  158.5076 C.3     1  UNL1        0.0500
     40 C         141.5288  144.9754  161.0549 C.3     1  UNL1        0.1855
     41 O         140.9426  144.9730  162.4356 O.3     1  UNL1       -0.3473
     42 C         141.8126  145.2718  163.6204 C.3     1  UNL1        0.1743
@<TRIPOS>BOND
     1    21    22    1
     2    22    20    1
     3    20    18    1
     4    18    19    2
     5    18    17    1
     6    17    11    1
     7    11    12   ar
     8    12    13   ar
     9    13    14   ar
    10    14     7    1
    11     7     8   am
    12     8     9    2
    13     8     1    1
    14     1     2   ar
    15     2     3   ar
    16     3    26    1
    17    26    27    1
    18    27    28   ar
    19    28    29   ar
    20    29    30   ar
    21    30    33    1
    22    33    34    1
    23    33    35    2
    24    33    36    2
    25    30    31   ar
    26    31    32   ar
    27     3     4   ar
    28     4     5   ar
    29     5    37    1
    30    37    38    1
    31    38    39    1
    32    38    40    1
    33    40    41    1
    34    41    42    1
    35     5     6   ar
    36    14    15   ar
    37    15    16   ar
    38    18    23    1
    39    23    24    1
    40    24    25    1
    41    16    11   ar
    42     6     1   ar
    43    32    27   ar
    44     7    10    1
@<TRIPOS>MOLECULE
*****
 42 44 0 0 0
SMALL
GASTEIGER

@<TRIPOS>ATOM
      1 C         137.6748  142.1903  157.4380 C.ar    1  UNL1        0.0597
      2 C         136.7396  141.1922  156.8221 C.ar    1  UNL1        0.0422
      3 C         136.0495  141.5098  155.5287 C.ar    1  UNL1        0.1485
      4 C         136.2945  142.8255  154.8512 C.ar    1  UNL1        0.0743
      5 C         137.2297  143.8236  155.4671 C.ar    1  UNL1        0.1417
      6 C         137.9198  143.5060  156.7605 C.ar    1  UNL1        0.0416
      7 N         138.7333  142.9781  159.6760 N.am    1  UNL1       -0.2646
      8 C         138.3650  141.8728  158.7313 C.2     1  UNL1        0.2508
      9 O         138.6868  140.4497  159.0800 O.2     1  UNL1       -0.2698
     10 H         138.5221  143.9121  159.4472 H       1  UNL1        0.1566
     11 C         140.8038  142.0254  163.5562 C.ar    1  UNL1        0.0905
     12 C         141.5786  142.0211  162.2718 C.ar    1  UNL1        0.1156
     13 N         140.8885  142.3387  160.9785 N.ar    1  UNL1       -0.2261
     14 C         139.4235  142.6605  160.9694 C.ar    1  UNL1        0.1538
     15 C         138.6486  142.6648  162.2537 C.ar    1  UNL1        0.1328
     16 N         139.3388  142.3472  163.5471 N.ar    1  UNL1       -0.2430
     17 C         141.4940  141.7078  164.8495 C.3     1  UNL1        0.1631
     18 P         142.1620  140.3779  165.0363 P.3     1  UNL1        0.3493
     19 O         142.8300  139.0478  165.2232 O.2     1  UNL1       -0.2573
     20 O         143.4951  141.0598  165.1241 O.3     1  UNL1       -0.2938
     21 C         145.6826  141.5148  163.7983 C.3     1  UNL1        0.0352
     22 C         144.6507  140.5549  164.3119 C.3     1  UNL1        0.1515
     23 O         140.8288  139.6959  164.9486 O.3     1  UNL1       -0.2938
     24 C         139.9545  139.5991  166.1635 C.3     1  UNL1        0.1515
     25 C         138.4768  139.3922  166.0095 C.3     1  UNL1        0.0352
     26 O         135.1143  140.5117  154.9128 O.3     1  UNL1       -0.4534
     27 C         133.7792  140.2465  155.5432 C.ar    1  UNL1        0.1454
     28 C         133.5567  138.9868  156.3265 C.ar    1  UNL1        0.0388
     29 C         132.2217  138.7216  156.9569 C.ar    1  UNL1        0.0215
     30 C         131.1092  139.7160  156.8038 C.ar    1  UNL1        0.1059
     31 C         131.3318  140.9757  156.0204 C.ar    1  UNL1        0.0215
     32 C         132.6668  141.2409  155.3901 C.ar    1  UNL1        0.0388
     33 S         129.7741  139.4507  157.4341 S.O2    1  UNL1        0.0105
     34 C         128.4391  139.1856  158.0644 C.3     1  UNL1        0.1816
     35 O         130.4184  138.4999  158.3988 O.2     1  UNL1       -0.1686
     36 O         129.1298  140.4016  156.4694 O.2     1  UNL1       -0.1686
     37 O         137.4747  145.1392  154.7896 O.3     1  UNL1       -0.4765
     38 C         138.8578  145.7187  154.7546 C.3     1  UNL1        0.1954
     39 C         139.9488  145.0109  154.0071 C.3     1  UNL1        0.0500
     40 C         139.1498  147.0059  155.4671 C.3     1  UNL1        0.1855
     41 O         139.3847  147.0066  156.9486 O.3     1  UNL1       -0.3473
     42 C         140.3932  146.0724  157.5485 C.3     1  UNL1        0.1743
@<TRIPOS>BOND
     1    21    22    1
     2    22    20    1
     3    20    18    1
     4    18    19    2
     5    18    17    1
     6    17    11    1
     7    11    12   ar
     8    12    13   ar
     9    13    14   ar
    10    14     7    1
    11     7     8   am
    12     8     9    2
    13     8     1    1
    14     1     2   ar
    15     2     3   ar
    16     3    26    1
    17    26    27    1
    18    27    28   ar
    19    28    29   ar
    20    29    30   ar
    21    30    33    1
    22    33    34    1
    23    33    35    2
    24    33    36    2
    25    30    31   ar
    26    31    32   ar
    27     3     4   ar
    28     4     5   ar
    29     5    37    1
    30    37    38    1
    31    38    39    1
    32    38    40    1
    33    40    41    1
    34    41    42    1
    35     5     6   ar
    36    14    15   ar
    37    15    16   ar
    38    18    23    1
    39    23    24    1
    40    24    25    1
    41    16    11   ar
    42     6     1   ar
    43    32    27   ar
    44     7    10    1
@<TRIPOS>MOLECULE
*****
 42 44 0 0 0
SMALL
GASTEIGER

@<TRIPOS>ATOM
      1 C         137.6453  142.2791  157.3361 C.ar    1  UNL1        0.0597
      2 C         136.6763  141.3367  156.6856 C.ar    1  UNL1        0.0422
      3 C         136.0120  141.7166  155.3955 C.ar    1  UNL1        0.1485
      4 C         136.3166  143.0388  154.7560 C.ar    1  UNL1        0.0743
      5 C         137.2855  143.9811  155.4065 C.ar    1  UNL1        0.1417
      6 C         137.9499  143.6012  156.6966 C.ar    1  UNL1        0.0416
      7 N         138.1782  142.7876  159.8276 N.am    1  UNL1       -0.2646
      8 C         138.3097  141.8992  158.6262 C.2     1  UNL1        0.2508
      9 O         139.1055  140.6308  158.7149 O.2     1  UNL1       -0.2698
     10 H         137.6558  143.6201  159.7694 H       1  UNL1        0.1566
     11 C         140.1712  141.6480  163.6979 C.ar    1  UNL1        0.0905
     12 C         140.9148  142.4655  162.6836 C.ar    1  UNL1        0.1156
     13 N         140.2504  142.8454  161.3935 N.ar    1  UNL1       -0.2261
     14 C         138.8425  142.4078  161.1177 C.ar    1  UNL1        0.1538
     15 C         138.0989  141.5902  162.1319 C.ar    1  UNL1        0.1328
     16 N         138.7633  141.2104  163.4220 N.ar    1  UNL1       -0.2430
     17 C         140.8356  141.2681  164.9879 C.3     1  UNL1        0.1631
     18 P         141.2530  139.8473  165.2266 P.3     1  UNL1        0.3493
     19 O         141.6706  138.4265  165.4653 O.2     1  UNL1       -0.2573
     20 O         140.1218  139.6780  166.1969 O.3     1  UNL1       -0.2938
     21 C         137.8072  138.6485  166.7739 C.3     1  UNL1        0.0352
     22 C         139.0409  138.6751  165.9211 C.3     1  UNL1        0.1515
     23 O         142.3843  140.0167  164.2563 O.3     1  UNL1       -0.2938
     24 C         143.7595  140.3446  164.7575 C.3     1  UNL1        0.1515
     25 C         144.9334  139.5189  164.3211 C.3     1  UNL1        0.0352
     26 O         135.0431  140.7743  154.7450 O.3     1  UNL1       -0.4534
     27 C         133.7639  140.4149  155.4413 C.ar    1  UNL1        0.1454
     28 C         133.6625  139.1291  156.2070 C.ar    1  UNL1        0.0388
     29 C         132.3834  138.7697  156.9032 C.ar    1  UNL1        0.0215
     30 C         131.2058  139.6962  156.8338 C.ar    1  UNL1        0.1059
     31 C         131.3073  140.9820  156.0681 C.ar    1  UNL1        0.0215
     32 C         132.5863  141.3414  155.3718 C.ar    1  UNL1        0.0388
     33 S         129.9267  139.3368  157.5301 S.O2    1  UNL1        0.0105
     34 C         128.6476  138.9775  158.2264 C.3     1  UNL1        0.1816
     35 O         129.1823  140.3101  156.6649 O.2     1  UNL1       -0.1686
     36 O         130.6711  138.3636  158.3952 O.2     1  UNL1       -0.1686
     37 O         137.5901  145.3033  154.7669 O.3     1  UNL1       -0.4765
     38 C         138.8959  145.9874  155.0442 C.3     1  UNL1        0.1954
     39 C         140.1666  145.4420  154.4630 C.3     1  UNL1        0.0500
     40 C         138.9309  147.2170  155.9025 C.3     1  UNL1        0.1855
     41 O         138.8437  148.5750  155.2714 O.3     1  UNL1       -0.3473
     42 C         138.4188  149.7571  156.0911 C.3     1  UNL1        0.1743
@<TRIPOS>BOND
     1    21    22    1
     2    22    20    1
     3    20    18    1
     4    18    19    2
     5    18    17    1
     6    17    11    1
     7    11    12   ar
     8    12    13   ar
     9    13    14   ar
    10    14     7    1
    11     7     8   am
    12     8     9    2
    13     8     1    1
    14     1     2   ar
    15     2     3   ar
    16     3    26    1
    17    26    27    1
    18    27    28   ar
    19    28    29   ar
    20    29    30   ar
    21    30    33    1
    22    33    34    1
    23    33    35    2
    24    33    36    2
    25    30    31   ar
    26    31    32   ar
    27     3     4   ar
    28     4     5   ar
    29     5    37    1
    30    37    38    1
    31    38    39    1
    32    38    40    1
    33    40    41    1
    34    41    42    1
    35     5     6   ar
    36    14    15   ar
    37    15    16   ar
    38    18    23    1
    39    23    24    1
    40    24    25    1
    41    16    11   ar
    42     6     1   ar
    43    32    27   ar
    44     7    10    1
@<TRIPOS>MOLECULE
*****
 42 44 0 0 0
SMALL
GASTEIGER

@<TRIPOS>ATOM
      1 C         138.0297  142.4760  157.2168 C.ar    1  UNL1        0.0597
      2 C         139.1196  143.4106  156.7825 C.ar    1  UNL1        0.0422
      3 C         139.0693  144.0409  155.4222 C.ar    1  UNL1        0.1485
      4 C         137.9290  143.7365  154.4963 C.ar    1  UNL1        0.0743
      5 C         136.8392  142.8020  154.9307 C.ar    1  UNL1        0.1417
      6 C         136.8895  142.1717  156.2909 C.ar    1  UNL1        0.0416
      7 N         138.4461  142.6727  159.7737 N.am    1  UNL1       -0.2646
      8 C         138.0800  141.8458  158.5771 C.2     1  UNL1        0.2508
      9 O         137.7641  140.3885  158.7406 O.2     1  UNL1       -0.2698
     10 H         138.6534  143.6291  159.6664 H       1  UNL1        0.1566
     11 C         138.5970  140.7820  163.8545 C.ar    1  UNL1        0.0905
     12 C         137.4300  141.6417  163.4689 C.ar    1  UNL1        0.1156
     13 N         137.3797  142.2720  162.1087 N.ar    1  UNL1       -0.2261
     14 C         138.4964  142.0425  161.1340 C.ar    1  UNL1        0.1538
     15 C         139.6635  141.1827  161.5195 C.ar    1  UNL1        0.1328
     16 N         139.7138  140.5524  162.8797 N.ar    1  UNL1       -0.2430
     17 C         138.6473  140.1517  165.2147 C.3     1  UNL1        0.1631
     18 P         139.9597  140.0081  165.9266 P.3     1  UNL1        0.3493
     19 O         141.2722  139.8643  166.6386 O.2     1  UNL1       -0.2573
     20 O         139.9362  141.4692  166.2649 O.3     1  UNL1       -0.2938
     21 C         141.5563  142.9629  164.8885 C.3     1  UNL1        0.0352
     22 C         141.1948  142.2804  166.1744 C.3     1  UNL1        0.1515
     23 O         139.9833  138.5469  165.5884 O.3     1  UNL1       -0.2938
     24 C         141.1937  137.9475  164.9360 C.3     1  UNL1        0.1515
     25 C         141.0471  137.1444  163.6775 C.3     1  UNL1        0.0352
     26 O         140.1592  144.9754  154.9879 O.3     1  UNL1       -0.4534
     27 C         139.8968  146.4505  154.9131 C.ar    1  UNL1        0.1454
     28 C         140.5199  147.2686  153.8211 C.ar    1  UNL1        0.0388
     29 C         140.2576  148.7435  153.7462 C.ar    1  UNL1        0.0215
     30 C         139.3722  149.4004  154.7634 C.ar    1  UNL1        0.1059
     31 C         138.7491  148.5822  155.8553 C.ar    1  UNL1        0.0215
     32 C         139.0114  147.1073  155.9302 C.ar    1  UNL1        0.0388
     33 S         139.1098  150.8754  154.6885 S.O2    1  UNL1        0.0105
     34 C         138.8475  152.3503  154.6137 C.3     1  UNL1        0.1816
     35 O         138.0220  150.7338  155.7115 O.2     1  UNL1       -0.1686
     36 O         140.1977  151.0170  153.6656 O.2     1  UNL1       -0.1686
     37 O         135.6990  142.4977  154.0048 O.3     1  UNL1       -0.4765
     38 C         134.9725  141.1899  154.1142 C.3     1  UNL1        0.1954
     39 C         135.6620  139.9144  153.7298 C.3     1  UNL1        0.0500
     40 C         133.5565  141.1576  154.6081 C.3     1  UNL1        0.1855
     41 O         133.2737  140.8988  156.0583 O.3     1  UNL1       -0.3473
     42 C         133.5461  139.5458  156.6457 C.3     1  UNL1        0.1743
@<TRIPOS>BOND
     1    21    22    1
     2    22    20    1
     3    20    18    1
     4    18    19    2
     5    18    17    1
     6    17    11    1
     7    11    12   ar
     8    12    13   ar
     9    13    14   ar
    10    14     7    1
    11     7     8   am
    12     8     9    2
    13     8     1    1
    14     1     2   ar
    15     2     3   ar
    16     3    26    1
    17    26    27    1
    18    27    28   ar
    19    28    29   ar
    20    29    30   ar
    21    30    33    1
    22    33    34    1
    23    33    35    2
    24    33    36    2
    25    30    31   ar
    26    31    32   ar
    27     3     4   ar
    28     4     5   ar
    29     5    37    1
    30    37    38    1
    31    38    39    1
    32    38    40    1
    33    40    41    1
    34    41    42    1
    35     5     6   ar
    36    14    15   ar
    37    15    16   ar
    38    18    23    1
    39    23    24    1
    40    24    25    1
    41    16    11   ar
    42     6     1   ar
    43    32    27   ar
    44     7    10    1
