@<TRIPOS>MOLECULE
*****
 34 38 0 0 0
SMALL
GASTEIGER

@<TRIPOS>ATOM
      1 C         139.6398  140.7819  167.2217 C.ar    1  UNL1        0.0004
      2 C         138.8575  139.5566  166.8522 C.ar    1  UNL1        0.0031
      3 C         138.2658  139.4302  165.4797 C.ar    1  UNL1        0.0370
      4 C         138.4564  140.5290  164.4766 C.ar    1  UNL1        0.1415
      5 C         139.2387  141.7543  164.8461 C.ar    1  UNL1        0.0699
      6 C         139.8305  141.8808  166.2186 C.ar    1  UNL1        0.0061
      7 C         139.5455  142.9572  164.0041 C.ar    1  UNL1        0.1704
      8 N         140.3454  144.1273  164.4949 N.ar    1  UNL1       -0.1273
      9 N         140.4400  145.1251  163.3789 N.ar    1  UNL1       -0.1127
     10 C         139.6984  144.5717  162.1984 C.ar    1  UNL1        0.2224
     11 N         139.1456  143.2319  162.5847 N.ar    1  UNL1       -0.2796
     12 C         138.3402  142.3715  161.6567 C.3     1  UNL1        0.1574
     13 C         137.7358  141.0239  161.9189 C.3     1  UNL1        0.2299
     14 O         137.7875  140.2039  163.1740 O.3     1  UNL1       -0.4733
     15 C         141.9363  142.0090  170.2168 C.ar    1  UNL1        0.0590
     16 C         141.3446  141.8825  168.8443 C.ar    1  UNL1        0.0147
     17 C         140.2316  140.9085  168.5942 C.ar    1  UNL1        0.0027
     18 C         139.7104  140.0609  169.7167 C.ar    1  UNL1        0.0207
     19 C         140.3021  140.1874  171.0892 C.ar    1  UNL1        0.0984
     20 N         141.4151  141.1614  171.3393 N.ar    1  UNL1       -0.2482
     21 C         144.4134  142.7253  169.8987 C.3     1  UNL1        0.0067
     22 C         143.0493  142.9831  170.4669 C.3     1  UNL1        0.0458
     23 N         139.5379  145.2407  160.8654 N.pl3   1  UNL1       -0.2826
     24 H         138.7940  145.8680  160.7159 H       1  UNL1        0.1551
     25 C         140.5108  144.9540  159.7603 C.ar    1  UNL1        0.0504
     26 C         141.6435  143.9973  159.9877 C.ar    1  UNL1        0.0147
     27 C         142.6163  143.7107  158.8824 C.ar    1  UNL1        0.0012
     28 C         142.4564  144.3807  157.5500 C.ar    1  UNL1        0.0039
     29 C         141.3237  145.3374  157.3226 C.ar    1  UNL1        0.0726
     30 C         140.3508  145.6240  158.4278 C.ar    1  UNL1        0.0185
     31 C         141.1638  146.0074  155.9902 C.3     1  UNL1        0.4186
     32 F         141.0037  146.6775  154.6577 F       1  UNL1       -0.1659
     33 F         139.8180  146.5203  156.4096 F       1  UNL1       -0.1659
     34 F         142.5095  145.4946  155.5707 F       1  UNL1       -0.1659
@<TRIPOS>BOND
     1    21    22    1
     2    22    15    1
     3    15    16   ar
     4    16    17   ar
     5    17     1    1
     6     1     2   ar
     7     2     3   ar
     8     3     4   ar
     9     4     5   ar
    10     5     6   ar
    11     5     7    1
    12     7     8   ar
    13     8     9   ar
    14     9    10   ar
    15    10    23    1
    16    23    25    1
    17    25    26   ar
    18    26    27   ar
    19    27    28   ar
    20    28    29   ar
    21    29    31    1
    22    31    32    1
    23    31    33    1
    24    31    34    1
    25    29    30   ar
    26    10    11   ar
    27    11    12    1
    28    12    13    1
    29    13    14    1
    30    17    18   ar
    31    18    19   ar
    32    19    20   ar
    33    20    15   ar
    34     6     1   ar
    35    11     7   ar
    36    14     4    1
    37    30    25   ar
    38    23    24    1
@<TRIPOS>MOLECULE
*****
 34 38 0 0 0
SMALL
GASTEIGER

@<TRIPOS>ATOM
      1 C         139.6490  140.8096  167.1856 C.ar    1  UNL1        0.0004
      2 C         138.8908  139.5719  166.8074 C.ar    1  UNL1        0.0031
      3 C         138.2997  139.4447  165.4346 C.ar    1  UNL1        0.0370
      4 C         138.4668  140.5552  164.4402 C.ar    1  UNL1        0.1415
      5 C         139.2250  141.7929  164.8185 C.ar    1  UNL1        0.0699
      6 C         139.8161  141.9201  166.1912 C.ar    1  UNL1        0.0061
      7 C         139.5064  143.0084  163.9859 C.ar    1  UNL1        0.1704
      8 N         140.2835  144.1903  164.4851 N.ar    1  UNL1       -0.1273
      9 N         140.3565  145.1988  163.3771 N.ar    1  UNL1       -0.1127
     10 C         139.6244  144.6401  162.1931 C.ar    1  UNL1        0.2224
     11 N         139.0991  143.2864  162.5693 N.ar    1  UNL1       -0.2796
     12 C         138.3097  142.4176  161.6354 C.3     1  UNL1        0.1574
     13 C         137.7328  141.0562  161.8875 C.3     1  UNL1        0.2299
     14 O         137.8027  140.2273  163.1358 O.3     1  UNL1       -0.4733
     15 C         141.9395  142.0431  170.1827 C.ar    1  UNL1        0.0590
     16 C         141.3484  141.9158  168.8099 C.ar    1  UNL1        0.0147
     17 C         140.2401  140.9369  168.5584 C.ar    1  UNL1        0.0027
     18 C         139.7228  140.0852  169.6796 C.ar    1  UNL1        0.0207
     19 C         140.3139  140.2124  171.0523 C.ar    1  UNL1        0.0984
     20 N         141.4223  141.1914  171.3039 N.ar    1  UNL1       -0.2482
     21 C         144.4399  142.7152  169.9672 C.3     1  UNL1        0.0067
     22 C         143.0478  143.0220  170.4343 C.3     1  UNL1        0.0458
     23 N         139.4486  145.3165  160.8658 N.pl3   1  UNL1       -0.2826
     24 H         138.6884  145.9248  160.7202 H       1  UNL1        0.1551
     25 C         140.4311  145.0661  159.7603 C.ar    1  UNL1        0.0504
     26 C         140.2974  145.7983  158.4580 C.ar    1  UNL1        0.0147
     27 C         141.2800  145.5478  157.3526 C.ar    1  UNL1        0.0012
     28 C         142.3961  144.5653  157.5496 C.ar    1  UNL1        0.0039
     29 C         142.5298  143.8331  158.8519 C.ar    1  UNL1        0.0726
     30 C         141.5472  144.0836  159.9573 C.ar    1  UNL1        0.0185
     31 C         143.6459  142.8506  159.0488 C.3     1  UNL1        0.4186
     32 F         144.7620  141.8680  159.2457 F       1  UNL1       -0.1659
     33 F         143.5154  142.4158  157.6191 F       1  UNL1       -0.1659
     34 F         143.7764  143.2853  160.4784 F       1  UNL1       -0.1659
@<TRIPOS>BOND
     1    21    22    1
     2    22    15    1
     3    15    16   ar
     4    16    17   ar
     5    17     1    1
     6     1     2   ar
     7     2     3   ar
     8     3     4   ar
     9     4     5   ar
    10     5     6   ar
    11     5     7    1
    12     7     8   ar
    13     8     9   ar
    14     9    10   ar
    15    10    23    1
    16    23    25    1
    17    25    26   ar
    18    26    27   ar
    19    27    28   ar
    20    28    29   ar
    21    29    31    1
    22    31    32    1
    23    31    33    1
    24    31    34    1
    25    29    30   ar
    26    10    11   ar
    27    11    12    1
    28    12    13    1
    29    13    14    1
    30    17    18   ar
    31    18    19   ar
    32    19    20   ar
    33    20    15   ar
    34     6     1   ar
    35    11     7   ar
    36    14     4    1
    37    30    25   ar
    38    23    24    1
@<TRIPOS>MOLECULE
*****
 34 38 0 0 0
SMALL
GASTEIGER

@<TRIPOS>ATOM
      1 C         138.8963  140.0452  163.5159 C.ar    1  UNL1        0.0004
      2 C         137.7165  140.7152  162.8763 C.ar    1  UNL1        0.0031
      3 C         137.5846  140.7357  161.3823 C.ar    1  UNL1        0.0370
      4 C         138.6326  140.0864  160.5278 C.ar    1  UNL1        0.1415
      5 C         139.8124  139.4164  161.1674 C.ar    1  UNL1        0.0699
      6 C         139.9443  139.3959  162.6614 C.ar    1  UNL1        0.0061
      7 C         140.9616  138.7149  160.5062 C.ar    1  UNL1        0.1704
      8 N         142.0893  138.0802  161.2647 N.ar    1  UNL1       -0.1273
      9 N         143.0394  137.4830  160.2693 N.ar    1  UNL1       -0.1127
     10 C         142.4988  137.7487  158.8956 C.ar    1  UNL1        0.2224
     11 N         141.2147  138.5101  159.0419 N.ar    1  UNL1       -0.2796
     12 C         140.3812  138.9561  157.8773 C.3     1  UNL1        0.1574
     13 C         139.0887  139.7172  157.8893 C.3     1  UNL1        0.2299
     14 O         138.3105  140.2202  159.0690 O.3     1  UNL1       -0.4733
     15 C         140.0960  140.9563  167.1876 C.ar    1  UNL1        0.0590
     16 C         139.9641  140.9769  165.6935 C.ar    1  UNL1        0.0147
     17 C         139.0282  140.0246  165.0100 C.ar    1  UNL1        0.0027
     18 C         138.2242  139.0517  165.8205 C.ar    1  UNL1        0.0207
     19 C         138.3560  139.0311  167.3145 C.ar    1  UNL1        0.0984
     20 N         139.2920  139.9834  167.9981 N.ar    1  UNL1       -0.2482
     21 C         140.4879  142.9809  168.7678 C.3     1  UNL1        0.0067
     22 C         141.0319  141.9086  167.8710 C.3     1  UNL1        0.0458
     23 N         143.1314  137.3271  157.6025 N.pl3   1  UNL1       -0.2826
     24 H         143.8178  137.8942  157.1823 H       1  UNL1        0.1551
     25 C         142.7183  136.0414  156.9495 C.ar    1  UNL1        0.0504
     26 C         141.6913  136.0517  155.8562 C.ar    1  UNL1        0.0147
     27 C         141.2782  134.7660  155.2033 C.ar    1  UNL1        0.0012
     28 C         141.8921  133.4701  155.6435 C.ar    1  UNL1        0.0039
     29 C         142.9191  133.4599  156.7367 C.ar    1  UNL1        0.0726
     30 C         143.3322  134.7456  157.3897 C.ar    1  UNL1        0.0185
     31 C         143.5330  132.1640  157.1770 C.3     1  UNL1        0.4186
     32 F         144.1470  130.8682  157.6174 F       1  UNL1       -0.1659
     33 F         144.6208  132.9189  157.8820 F       1  UNL1       -0.1659
     34 F         142.4453  131.4091  156.4721 F       1  UNL1       -0.1659
@<TRIPOS>BOND
     1    21    22    1
     2    22    15    1
     3    15    16   ar
     4    16    17   ar
     5    17     1    1
     6     1     2   ar
     7     2     3   ar
     8     3     4   ar
     9     4     5   ar
    10     5     6   ar
    11     5     7    1
    12     7     8   ar
    13     8     9   ar
    14     9    10   ar
    15    10    23    1
    16    23    25    1
    17    25    26   ar
    18    26    27   ar
    19    27    28   ar
    20    28    29   ar
    21    29    31    1
    22    31    32    1
    23    31    33    1
    24    31    34    1
    25    29    30   ar
    26    10    11   ar
    27    11    12    1
    28    12    13    1
    29    13    14    1
    30    17    18   ar
    31    18    19   ar
    32    19    20   ar
    33    20    15   ar
    34     6     1   ar
    35    11     7   ar
    36    14     4    1
    37    30    25   ar
    38    23    24    1
@<TRIPOS>MOLECULE
*****
 34 38 0 0 0
SMALL
GASTEIGER

@<TRIPOS>ATOM
      1 C         142.8107  140.5022  166.0165 C.ar    1  UNL1        0.0004
      2 C         143.7400  139.4581  165.4723 C.ar    1  UNL1        0.0031
      3 C         144.2314  139.5550  164.0585 C.ar    1  UNL1        0.0370
      4 C         143.7936  140.6960  163.1888 C.ar    1  UNL1        0.1415
      5 C         142.8643  141.7402  163.7330 C.ar    1  UNL1        0.0699
      6 C         142.3728  141.6432  165.1468 C.ar    1  UNL1        0.0061
      7 C         142.3091  142.9500  163.0416 C.ar    1  UNL1        0.1704
      8 N         141.3807  143.9259  163.7017 N.ar    1  UNL1       -0.1273
      9 N         141.0440  144.9935  162.7033 N.ar    1  UNL1       -0.1127
     10 C         141.7642  144.6773  161.4261 C.ar    1  UNL1        0.2224
     11 N         142.5461  143.4144  161.6351 N.ar    1  UNL1       -0.2796
     12 C         143.3968  142.7838  160.5728 C.3     1  UNL1        0.1574
     13 C         144.2207  141.5330  160.6544 C.3     1  UNL1        0.2299
     14 O         144.3972  140.6038  161.8188 O.3     1  UNL1       -0.4733
     15 C         140.9285  141.3725  169.4004 C.ar    1  UNL1        0.0590
     16 C         141.4200  141.4694  167.9865 C.ar    1  UNL1        0.0147
     17 C         142.3191  140.4053  167.4304 C.ar    1  UNL1        0.0027
     18 C         142.7268  139.2443  168.2883 C.ar    1  UNL1        0.0207
     19 C         142.2354  139.1474  169.7021 C.ar    1  UNL1        0.0984
     20 N         141.3362  140.2115  170.2582 N.ar    1  UNL1       -0.2482
     21 C         140.4233  143.8803  169.8539 C.3     1  UNL1        0.0067
     22 C         140.0294  142.4366  169.9564 C.3     1  UNL1        0.0458
     23 N         141.7117  145.4828  160.1617 N.pl3   1  UNL1       -0.2826
     24 H         142.2386  146.3108  160.0834 H       1  UNL1        0.1551
     25 C         140.8566  145.0269  159.0168 C.ar    1  UNL1        0.0504
     26 C         140.1130  143.7273  159.1072 C.ar    1  UNL1        0.0147
     27 C         139.2578  143.2714  157.9622 C.ar    1  UNL1        0.0012
     28 C         139.1464  144.1150  156.7270 C.ar    1  UNL1        0.0039
     29 C         139.8900  145.4146  156.6366 C.ar    1  UNL1        0.0726
     30 C         140.7451  145.8705  157.7816 C.ar    1  UNL1        0.0185
     31 C         139.7786  146.2582  155.4014 C.3     1  UNL1        0.4186
     32 F         139.6670  147.1018  154.1661 F       1  UNL1       -0.1659
     33 F         138.3523  146.5718  155.7443 F       1  UNL1       -0.1659
     34 F         141.2047  145.9446  155.0584 F       1  UNL1       -0.1659
@<TRIPOS>BOND
     1    21    22    1
     2    22    15    1
     3    15    16   ar
     4    16    17   ar
     5    17     1    1
     6     1     2   ar
     7     2     3   ar
     8     3     4   ar
     9     4     5   ar
    10     5     6   ar
    11     5     7    1
    12     7     8   ar
    13     8     9   ar
    14     9    10   ar
    15    10    23    1
    16    23    25    1
    17    25    26   ar
    18    26    27   ar
    19    27    28   ar
    20    28    29   ar
    21    29    31    1
    22    31    32    1
    23    31    33    1
    24    31    34    1
    25    29    30   ar
    26    10    11   ar
    27    11    12    1
    28    12    13    1
    29    13    14    1
    30    17    18   ar
    31    18    19   ar
    32    19    20   ar
    33    20    15   ar
    34     6     1   ar
    35    11     7   ar
    36    14     4    1
    37    30    25   ar
    38    23    24    1
@<TRIPOS>MOLECULE
*****
 34 38 0 0 0
SMALL
GASTEIGER

@<TRIPOS>ATOM
      1 C         140.2094  139.6729  164.6270 C.ar    1  UNL1        0.0004
      2 C         138.7900  140.0886  164.3775 C.ar    1  UNL1        0.0031
      3 C         138.2427  140.0878  162.9809 C.ar    1  UNL1        0.0370
      4 C         139.1149  139.6714  161.8338 C.ar    1  UNL1        0.1415
      5 C         140.5344  139.2557  162.0833 C.ar    1  UNL1        0.0699
      6 C         141.0816  139.2564  163.4799 C.ar    1  UNL1        0.0061
      7 C         141.5661  138.8082  161.0907 C.ar    1  UNL1        0.1704
      8 N         142.9631  138.4157  161.4708 N.ar    1  UNL1       -0.1273
      9 N         143.6935  138.0309  160.2184 N.ar    1  UNL1       -0.1127
     10 C         142.7479  138.1855  159.0644 C.ar    1  UNL1        0.2224
     11 N         141.4331  138.6659  159.6034 N.ar    1  UNL1       -0.2796
     12 C         140.2356  138.9359  158.7414 C.3     1  UNL1        0.1574
     13 C         138.8753  139.4149  159.1537 C.3     1  UNL1        0.2299
     14 O         138.3766  139.7423  160.5301 O.3     1  UNL1       -0.4733
     15 C         140.4238  140.0640  168.5705 C.ar    1  UNL1        0.0590
     16 C         139.8765  140.0633  167.1739 C.ar    1  UNL1        0.0147
     17 C         140.7567  139.6736  166.0236 C.ar    1  UNL1        0.0027
     18 C         142.1843  139.2846  166.2699 C.ar    1  UNL1        0.0207
     19 C         142.7317  139.2853  167.6664 C.ar    1  UNL1        0.0984
     20 N         141.8514  139.6750  168.8168 N.ar    1  UNL1       -0.2482
     21 C         139.5601  141.8631  170.2341 C.3     1  UNL1        0.0067
     22 C         139.5435  140.4538  169.7208 C.3     1  UNL1        0.0458
     23 N         143.0621  137.9083  157.6240 N.pl3   1  UNL1       -0.2826
     24 H         143.5248  138.5872  157.0817 H       1  UNL1        0.1551
     25 C         142.6712  136.5967  157.0100 C.ar    1  UNL1        0.0504
     26 C         141.6300  136.5544  155.9311 C.ar    1  UNL1        0.0147
     27 C         141.2392  135.2427  155.3171 C.ar    1  UNL1        0.0012
     28 C         141.8895  133.9736  155.7820 C.ar    1  UNL1        0.0039
     29 C         142.9307  134.0159  156.8610 C.ar    1  UNL1        0.0726
     30 C         143.3215  135.3276  157.4750 C.ar    1  UNL1        0.0185
     31 C         143.5811  132.7468  157.3259 C.3     1  UNL1        0.4186
     32 F         144.2315  131.4776  157.7910 F       1  UNL1       -0.1659
     33 F         144.6893  133.5429  157.9489 F       1  UNL1       -0.1659
     34 F         142.4730  131.9506  156.7030 F       1  UNL1       -0.1659
@<TRIPOS>BOND
     1    21    22    1
     2    22    15    1
     3    15    16   ar
     4    16    17   ar
     5    17     1    1
     6     1     2   ar
     7     2     3   ar
     8     3     4   ar
     9     4     5   ar
    10     5     6   ar
    11     5     7    1
    12     7     8   ar
    13     8     9   ar
    14     9    10   ar
    15    10    23    1
    16    23    25    1
    17    25    26   ar
    18    26    27   ar
    19    27    28   ar
    20    28    29   ar
    21    29    31    1
    22    31    32    1
    23    31    33    1
    24    31    34    1
    25    29    30   ar
    26    10    11   ar
    27    11    12    1
    28    12    13    1
    29    13    14    1
    30    17    18   ar
    31    18    19   ar
    32    19    20   ar
    33    20    15   ar
    34     6     1   ar
    35    11     7   ar
    36    14     4    1
    37    30    25   ar
    38    23    24    1
@<TRIPOS>MOLECULE
*****
 34 38 0 0 0
SMALL
GASTEIGER

@<TRIPOS>ATOM
      1 C         142.7724  140.5266  166.1187 C.ar    1  UNL1        0.0004
      2 C         143.6928  139.4718  165.5801 C.ar    1  UNL1        0.0031
      3 C         144.1795  139.5534  164.1636 C.ar    1  UNL1        0.0370
      4 C         143.7457  140.6898  163.2858 C.ar    1  UNL1        0.1415
      5 C         142.8253  141.7446  163.8245 C.ar    1  UNL1        0.0699
      6 C         142.3387  141.6630  165.2409 C.ar    1  UNL1        0.0061
      7 C         142.2754  142.9520  163.1248 C.ar    1  UNL1        0.1704
      8 N         141.3559  143.9395  163.7800 N.ar    1  UNL1       -0.1273
      9 N         141.0223  145.0007  162.7736 N.ar    1  UNL1       -0.1127
     10 C         141.7355  144.6689  161.4965 C.ar    1  UNL1        0.2224
     11 N         142.5100  143.4028  161.7134 N.ar    1  UNL1       -0.2796
     12 C         143.3525  142.7575  160.6534 C.3     1  UNL1        0.1574
     13 C         144.1685  141.5021  160.7427 C.3     1  UNL1        0.2299
     14 O         144.3435  140.5818  161.9143 O.3     1  UNL1       -0.4733
     15 C         140.9123  141.4404  169.5034 C.ar    1  UNL1        0.0590
     16 C         141.3990  141.5219  168.0868 C.ar    1  UNL1        0.0147
     17 C         142.2857  140.4451  167.5353 C.ar    1  UNL1        0.0027
     18 C         142.6857  139.2867  168.4002 C.ar    1  UNL1        0.0207
     19 C         142.1991  139.2051  169.8167 C.ar    1  UNL1        0.0984
     20 N         141.3123  140.2820  170.3683 N.ar    1  UNL1       -0.2482
     21 C         140.4001  143.9593  169.8812 C.3     1  UNL1        0.0067
     22 C         140.0257  142.5172  170.0549 C.3     1  UNL1        0.0458
     23 N         141.6834  145.4639  160.2255 N.pl3   1  UNL1       -0.2826
     24 H         142.1892  146.3052  160.1500 H       1  UNL1        0.1551
     25 C         140.8608  144.9771  159.0695 C.ar    1  UNL1        0.0504
     26 C         140.8889  145.7168  157.7649 C.ar    1  UNL1        0.0147
     27 C         140.0662  145.2299  156.6089 C.ar    1  UNL1        0.0012
     28 C         139.2155  144.0035  156.7577 C.ar    1  UNL1        0.0039
     29 C         139.1873  143.2639  158.0623 C.ar    1  UNL1        0.0726
     30 C         140.0100  143.7508  159.2183 C.ar    1  UNL1        0.0185
     31 C         138.3366  142.0375  158.2111 C.3     1  UNL1        0.4186
     32 F         137.4858  140.8111  158.3600 F       1  UNL1       -0.1659
     33 F         138.6040  142.0311  159.6871 F       1  UNL1       -0.1659
     34 F         138.0691  142.0439  156.7352 F       1  UNL1       -0.1659
@<TRIPOS>BOND
     1    21    22    1
     2    22    15    1
     3    15    16   ar
     4    16    17   ar
     5    17     1    1
     6     1     2   ar
     7     2     3   ar
     8     3     4   ar
     9     4     5   ar
    10     5     6   ar
    11     5     7    1
    12     7     8   ar
    13     8     9   ar
    14     9    10   ar
    15    10    23    1
    16    23    25    1
    17    25    26   ar
    18    26    27   ar
    19    27    28   ar
    20    28    29   ar
    21    29    31    1
    22    31    32    1
    23    31    33    1
    24    31    34    1
    25    29    30   ar
    26    10    11   ar
    27    11    12    1
    28    12    13    1
    29    13    14    1
    30    17    18   ar
    31    18    19   ar
    32    19    20   ar
    33    20    15   ar
    34     6     1   ar
    35    11     7   ar
    36    14     4    1
    37    30    25   ar
    38    23    24    1
@<TRIPOS>MOLECULE
*****
 34 38 0 0 0
SMALL
GASTEIGER

@<TRIPOS>ATOM
      1 C         143.7333  142.6936  158.7167 C.ar    1  UNL1        0.0004
      2 C         142.6570  143.6611  158.3228 C.ar    1  UNL1        0.0031
      3 C         141.8583  144.3653  159.3792 C.ar    1  UNL1        0.0370
      4 C         142.1359  144.1019  160.8296 C.ar    1  UNL1        0.1415
      5 C         143.2122  143.1343  161.2235 C.ar    1  UNL1        0.0699
      6 C         144.0110  142.4301  160.1670 C.ar    1  UNL1        0.0061
      7 C         143.6481  142.7299  162.6006 C.ar    1  UNL1        0.1704
      8 N         144.7471  141.7434  162.8632 N.ar    1  UNL1       -0.1273
      9 N         144.8935  141.5971  164.3489 N.ar    1  UNL1       -0.1127
     10 C         143.8850  142.4932  165.0044 C.ar    1  UNL1        0.2224
     11 N         143.1153  143.1934  163.9240 N.ar    1  UNL1       -0.2796
     12 C         142.0150  144.1756  164.1971 C.3     1  UNL1        0.1574
     13 C         141.1757  144.9370  163.2143 C.3     1  UNL1        0.2299
     14 O         141.2296  144.9041  161.7156 O.3     1  UNL1       -0.4733
     15 C         146.6286  141.8697  156.1303 C.ar    1  UNL1        0.0590
     16 C         145.8298  142.5739  157.1868 C.ar    1  UNL1        0.0147
     17 C         144.5321  141.9893  157.6602 C.ar    1  UNL1        0.0027
     18 C         144.0331  140.7005  157.0772 C.ar    1  UNL1        0.0207
     19 C         144.8318  139.9963  156.0208 C.ar    1  UNL1        0.0984
     20 N         146.1296  140.5809  155.5473 N.ar    1  UNL1       -0.2482
     21 C         149.1308  141.5749  155.4964 C.3     1  UNL1        0.0067
     22 C         147.9263  142.4543  155.6569 C.3     1  UNL1        0.0458
     23 N         143.6818  142.6599  166.4813 N.pl3   1  UNL1       -0.2826
     24 H         144.2908  143.2335  167.0003 H       1  UNL1        0.1551
     25 C         142.5509  141.9527  167.1674 C.ar    1  UNL1        0.0504
     26 C         142.1750  140.5610  166.7530 C.ar    1  UNL1        0.0147
     27 C         141.0440  139.8538  167.4392 C.ar    1  UNL1        0.0012
     28 C         140.2889  140.5384  168.5396 C.ar    1  UNL1        0.0039
     29 C         140.6648  141.9302  168.9541 C.ar    1  UNL1        0.0726
     30 C         141.7958  142.6373  168.2679 C.ar    1  UNL1        0.0185
     31 C         139.9097  142.6148  170.0546 C.3     1  UNL1        0.4186
     32 F         139.1547  143.2995  171.1551 F       1  UNL1       -0.1659
     33 F         140.7911  143.8199  169.9096 F       1  UNL1       -0.1659
     34 F         139.0283  141.4098  170.1996 F       1  UNL1       -0.1659
@<TRIPOS>BOND
     1    21    22    1
     2    22    15    1
     3    15    16   ar
     4    16    17   ar
     5    17     1    1
     6     1     2   ar
     7     2     3   ar
     8     3     4   ar
     9     4     5   ar
    10     5     6   ar
    11     5     7    1
    12     7     8   ar
    13     8     9   ar
    14     9    10   ar
    15    10    23    1
    16    23    25    1
    17    25    26   ar
    18    26    27   ar
    19    27    28   ar
    20    28    29   ar
    21    29    31    1
    22    31    32    1
    23    31    33    1
    24    31    34    1
    25    29    30   ar
    26    10    11   ar
    27    11    12    1
    28    12    13    1
    29    13    14    1
    30    17    18   ar
    31    18    19   ar
    32    19    20   ar
    33    20    15   ar
    34     6     1   ar
    35    11     7   ar
    36    14     4    1
    37    30    25   ar
    38    23    24    1
@<TRIPOS>MOLECULE
*****
 34 38 0 0 0
SMALL
GASTEIGER

@<TRIPOS>ATOM
      1 C         139.5100  138.8665  158.1283 C.ar    1  UNL1        0.0004
      2 C         138.7654  140.1101  157.7425 C.ar    1  UNL1        0.0031
      3 C         138.1795  140.9932  158.8039 C.ar    1  UNL1        0.0370
      4 C         138.3381  140.6327  160.2513 C.ar    1  UNL1        0.1415
      5 C         139.0827  139.3890  160.6372 C.ar    1  UNL1        0.0699
      6 C         139.6687  138.5059  159.5757 C.ar    1  UNL1        0.0061
      7 C         139.3541  138.8495  162.0102 C.ar    1  UNL1        0.1704
      8 N         140.1179  137.5839  162.2647 N.ar    1  UNL1       -0.1273
      9 N         140.1837  137.3725  163.7483 N.ar    1  UNL1       -0.1127
     10 C         139.4606  138.5076  164.4107 C.ar    1  UNL1        0.2224
     11 N         138.9479  139.4204  163.3365 N.ar    1  UNL1       -0.2796
     12 C         138.1700  140.6718  163.6173 C.3     1  UNL1        0.1574
     13 C         137.6062  141.6614  162.6412 C.3     1  UNL1        0.2299
     14 O         137.6810  141.6439  161.1432 O.3     1  UNL1       -0.4733
     15 C         142.0893  136.5987  156.1395 C.ar    1  UNL1        0.0590
     16 C         141.5033  137.4819  157.2010 C.ar    1  UNL1        0.0147
     17 C         140.0960  137.9833  157.0668 C.ar    1  UNL1        0.0027
     18 C         139.2746  137.6015  155.8712 C.ar    1  UNL1        0.0207
     19 C         139.8605  136.7184  154.8097 C.ar    1  UNL1        0.0984
     20 N         141.2679  136.2170  154.9439 N.ar    1  UNL1       -0.2482
     21 C         143.7700  134.6225  156.2792 C.3     1  UNL1        0.0067
     22 C         143.4966  136.0974  156.2737 C.3     1  UNL1        0.0458
     23 N         139.2817  138.6966  165.8880 N.pl3   1  UNL1       -0.2826
     24 H         138.5573  138.2260  166.3602 H       1  UNL1        0.1551
     25 C         140.2064  139.6025  166.6457 C.ar    1  UNL1        0.0504
     26 C         141.6708  139.6208  166.3213 C.ar    1  UNL1        0.0147
     27 C         142.5955  140.5268  167.0791 C.ar    1  UNL1        0.0012
     28 C         142.0558  141.4143  168.1612 C.ar    1  UNL1        0.0039
     29 C         140.5914  141.3960  168.4856 C.ar    1  UNL1        0.0726
     30 C         139.6667  140.4900  167.7278 C.ar    1  UNL1        0.0185
     31 C         140.0517  142.2835  169.5677 C.3     1  UNL1        0.4186
     32 F         139.5119  143.1710  170.6498 F       1  UNL1       -0.1659
     33 F         139.0662  141.2190  169.9492 F       1  UNL1       -0.1659
     34 F         141.0372  143.3480  169.1862 F       1  UNL1       -0.1659
@<TRIPOS>BOND
     1    21    22    1
     2    22    15    1
     3    15    16   ar
     4    16    17   ar
     5    17     1    1
     6     1     2   ar
     7     2     3   ar
     8     3     4   ar
     9     4     5   ar
    10     5     6   ar
    11     5     7    1
    12     7     8   ar
    13     8     9   ar
    14     9    10   ar
    15    10    23    1
    16    23    25    1
    17    25    26   ar
    18    26    27   ar
    19    27    28   ar
    20    28    29   ar
    21    29    31    1
    22    31    32    1
    23    31    33    1
    24    31    34    1
    25    29    30   ar
    26    10    11   ar
    27    11    12    1
    28    12    13    1
    29    13    14    1
    30    17    18   ar
    31    18    19   ar
    32    19    20   ar
    33    20    15   ar
    34     6     1   ar
    35    11     7   ar
    36    14     4    1
    37    30    25   ar
    38    23    24    1
@<TRIPOS>MOLECULE
*****
 34 38 0 0 0
SMALL
GASTEIGER

@<TRIPOS>ATOM
      1 C         140.1652  139.8934  167.6117 C.ar    1  UNL1        0.0004
      2 C         138.7074  139.6217  167.3857 C.ar    1  UNL1        0.0031
      3 C         138.2447  139.0518  166.0777 C.ar    1  UNL1        0.0370
      4 C         139.2398  138.7536  164.9956 C.ar    1  UNL1        0.1415
      5 C         140.6975  139.0253  165.2216 C.ar    1  UNL1        0.0699
      6 C         141.1602  139.5952  166.5296 C.ar    1  UNL1        0.0061
      7 C         141.8467  138.8028  164.2836 C.ar    1  UNL1        0.1704
      8 N         143.2711  139.1183  164.6323 N.ar    1  UNL1       -0.1273
      9 N         144.1267  138.7642  163.4522 N.ar    1  UNL1       -0.1127
     10 C         143.2310  138.2299  162.3741 C.ar    1  UNL1        0.2224
     11 N         141.8220  138.2537  162.8879 N.ar    1  UNL1       -0.2796
     12 C         140.6419  137.7914  162.0856 C.3     1  UNL1        0.1574
     13 C         139.1952  137.7641  162.4806 C.3     1  UNL1        0.2299
     14 O         138.5712  138.1923  163.7758 O.3     1  UNL1       -0.4733
     15 C         142.1592  142.0858  170.2514 C.ar    1  UNL1        0.0590
     16 C         141.6964  141.5158  168.9433 C.ar    1  UNL1        0.0147
     17 C         140.6279  140.4633  168.9198 C.ar    1  UNL1        0.0027
     18 C         140.0222  139.9807  170.2044 C.ar    1  UNL1        0.0207
     19 C         140.4849  140.5506  171.5125 C.ar    1  UNL1        0.0984
     20 N         141.5534  141.6032  171.5360 N.ar    1  UNL1       -0.2482
     21 C         144.6680  142.7484  170.1218 C.3     1  UNL1        0.0067
     22 C         143.2276  143.1382  170.2749 C.3     1  UNL1        0.0458
     23 N         143.6679  137.7550  161.0199 N.pl3   1  UNL1       -0.2826
     24 H         144.2109  136.9381  160.9363 H       1  UNL1        0.1551
     25 C         143.2774  138.5248  159.7932 C.ar    1  UNL1        0.0504
     26 C         142.6691  137.8116  158.6222 C.ar    1  UNL1        0.0147
     27 C         142.2786  138.5815  157.3955 C.ar    1  UNL1        0.0012
     28 C         142.4966  140.0645  157.3398 C.ar    1  UNL1        0.0039
     29 C         143.1050  140.7777  158.5107 C.ar    1  UNL1        0.0726
     30 C         143.4954  140.0078  159.7375 C.ar    1  UNL1        0.0185
     31 C         143.3230  142.2607  158.4550 C.3     1  UNL1        0.4186
     32 F         143.5409  143.7438  158.3994 F       1  UNL1       -0.1659
     33 F         142.6891  142.4047  159.8069 F       1  UNL1       -0.1659
     34 F         143.9568  142.1169  157.1032 F       1  UNL1       -0.1659
@<TRIPOS>BOND
     1    21    22    1
     2    22    15    1
     3    15    16   ar
     4    16    17   ar
     5    17     1    1
     6     1     2   ar
     7     2     3   ar
     8     3     4   ar
     9     4     5   ar
    10     5     6   ar
    11     5     7    1
    12     7     8   ar
    13     8     9   ar
    14     9    10   ar
    15    10    23    1
    16    23    25    1
    17    25    26   ar
    18    26    27   ar
    19    27    28   ar
    20    28    29   ar
    21    29    31    1
    22    31    32    1
    23    31    33    1
    24    31    34    1
    25    29    30   ar
    26    10    11   ar
    27    11    12    1
    28    12    13    1
    29    13    14    1
    30    17    18   ar
    31    18    19   ar
    32    19    20   ar
    33    20    15   ar
    34     6     1   ar
    35    11     7   ar
    36    14     4    1
    37    30    25   ar
    38    23    24    1
