@<TRIPOS>MOLECULE
*****
 29 31 0 0 0
SMALL
GASTEIGER

@<TRIPOS>ATOM
      1 C         140.1945  141.0465  162.9999 C.ar    1  UNL1        0.1030
      2 C         140.3016  139.9930  161.9376 C.ar    1  UNL1        0.0414
      3 C         140.8831  138.6506  162.2686 C.ar    1  UNL1        0.1034
      4 N         141.3576  138.3617  163.6620 N.ar    1  UNL1       -0.2120
      5 C         141.2506  139.4152  164.7243 C.ar    1  UNL1        0.2207
      6 N         140.6690  140.7576  164.3933 N.ar    1  UNL1       -0.2120
      7 C         139.7421  146.1947  161.9169 C.3     1  UNL1        0.0718
      8 C         139.4049  144.7553  162.1711 C.ar    1  UNL1        0.1208
      9 N         138.0307  144.1543  162.1480 N.ar    1  UNL1       -0.2293
     10 C         138.1593  142.6918  162.4557 C.ar    1  UNL1        0.1188
     11 C         139.6129  142.3890  162.6689 C.ar    1  UNL1        0.0981
     12 N         140.3827  143.6643  162.4930 N.ar    1  UNL1       -0.3155
     13 C         141.8693  143.8211  162.6173 C.3     1  UNL1        0.0868
     14 C         142.7436  143.6646  161.4086 C.3     1  UNL1        0.0245
     15 C         142.4815  144.1345  163.9503 C.3     1  UNL1        0.0245
     16 N         141.7251  139.1264  166.1176 N.pl3   1  UNL1       -0.2825
     17 H         142.2629  138.3216  166.2976 H       1  UNL1        0.1551
     18 C         141.3802  140.0636  167.2368 C.ar    1  UNL1        0.0527
     19 C         142.3152  141.1806  167.5947 C.ar    1  UNL1        0.0150
     20 C         141.9703  142.1178  168.7139 C.ar    1  UNL1        0.0080
     21 C         140.6904  141.9381  169.4752 C.ar    1  UNL1        0.0806
     22 C         139.7554  140.8211  169.1174 C.ar    1  UNL1        0.1457
     23 F         138.4755  140.6413  169.8787 F       1  UNL1       -0.2040
     24 C         140.1003  139.8838  167.9981 C.ar    1  UNL1        0.0444
     25 C         140.3455  142.8754  170.5945 C.2     1  UNL1        0.2449
     26 N         140.0450  144.3153  170.3011 N.am    1  UNL1       -0.3253
     27 O         140.3012  142.3726  172.0070 O.2     1  UNL1       -0.2703
     28 H         140.0740  144.6453  169.3740 H       1  UNL1        0.1453
     29 H         139.8186  144.9305  171.0357 H       1  UNL1        0.1453
@<TRIPOS>BOND
     1     7     8    1
     2     8     9   ar
     3     9    10   ar
     4    10    11   ar
     5    11     1    1
     6     1     2   ar
     7     2     3   ar
     8     3     4   ar
     9     4     5   ar
    10     5    16    1
    11    16    18    1
    12    18    19   ar
    13    19    20   ar
    14    20    21   ar
    15    21    25    1
    16    25    26   am
    17    25    27    2
    18    21    22   ar
    19    22    23    1
    20    22    24   ar
    21     5     6   ar
    22    11    12   ar
    23    12    13    1
    24    13    14    1
    25    13    15    1
    26    12     8   ar
    27     6     1   ar
    28    24    18   ar
    29    16    17    1
    30    26    28    1
    31    26    29    1
@<TRIPOS>MOLECULE
*****
 29 31 0 0 0
SMALL
GASTEIGER

@<TRIPOS>ATOM
      1 C         140.0031  141.0452  162.6229 C.ar    1  UNL1        0.1030
      2 C         139.1912  139.9838  161.9416 C.ar    1  UNL1        0.0414
      3 C         139.0267  138.6380  162.5831 C.ar    1  UNL1        0.1034
      4 N         139.6741  138.3535  163.9059 N.ar    1  UNL1       -0.2120
      5 C         140.4860  139.4149  164.5872 C.ar    1  UNL1        0.2207
      6 N         140.6505  140.7607  163.9457 N.ar    1  UNL1       -0.2120
      7 C         139.8309  146.2515  161.7593 C.3     1  UNL1        0.0718
      8 C         140.0885  144.7842  161.5844 C.ar    1  UNL1        0.1208
      9 N         140.7531  144.1402  160.4039 N.ar    1  UNL1       -0.2293
     10 C         140.8020  142.6613  160.6492 C.ar    1  UNL1        0.1188
     11 C         140.1676  142.3911  161.9814 C.ar    1  UNL1        0.0981
     12 N         139.7266  143.7032  162.5593 N.ar    1  UNL1       -0.3155
     13 C         139.0436  143.8997  163.8802 C.3     1  UNL1        0.0868
     14 C         137.5461  143.9471  163.9507 C.3     1  UNL1        0.0245
     15 C         139.8584  144.0490  165.1309 C.3     1  UNL1        0.0245
     16 N         141.1335  139.1304  165.9101 N.pl3   1  UNL1       -0.2825
     17 H         141.6961  138.3301  166.0208 H       1  UNL1        0.1551
     18 C         140.9237  140.0652  167.0642 C.ar    1  UNL1        0.0527
     19 C         141.8716  141.2063  167.2870 C.ar    1  UNL1        0.0150
     20 C         141.6618  142.1411  168.4412 C.ar    1  UNL1        0.0080
     21 C         140.5042  141.9350  169.3725 C.ar    1  UNL1        0.0806
     22 C         139.5564  140.7940  169.1498 C.ar    1  UNL1        0.1457
     23 F         138.3988  140.5878  170.0811 F       1  UNL1       -0.2040
     24 C         139.7661  139.8591  167.9956 C.ar    1  UNL1        0.0444
     25 C         140.2945  142.8699  170.5267 C.2     1  UNL1        0.2449
     26 N         140.0643  144.3307  170.2763 N.am    1  UNL1       -0.3253
     27 O         140.3150  142.3438  171.9313 O.2     1  UNL1       -0.2703
     28 H         140.0509  144.6760  169.3544 H       1  UNL1        0.1453
     29 H         139.9266  144.9443  171.0338 H       1  UNL1        0.1453
@<TRIPOS>BOND
     1     7     8    1
     2     8     9   ar
     3     9    10   ar
     4    10    11   ar
     5    11     1    1
     6     1     2   ar
     7     2     3   ar
     8     3     4   ar
     9     4     5   ar
    10     5    16    1
    11    16    18    1
    12    18    19   ar
    13    19    20   ar
    14    20    21   ar
    15    21    25    1
    16    25    26   am
    17    25    27    2
    18    21    22   ar
    19    22    23    1
    20    22    24   ar
    21     5     6   ar
    22    11    12   ar
    23    12    13    1
    24    13    14    1
    25    13    15    1
    26    12     8   ar
    27     6     1   ar
    28    24    18   ar
    29    16    17    1
    30    26    28    1
    31    26    29    1
@<TRIPOS>MOLECULE
*****
 29 31 0 0 0
SMALL
GASTEIGER

@<TRIPOS>ATOM
      1 C         141.2170  141.2086  162.8088 C.ar    1  UNL1        0.1030
      2 C         140.7940  140.1269  161.8596 C.ar    1  UNL1        0.0414
      3 C         140.7378  138.7016  162.3238 C.ar    1  UNL1        0.1034
      4 N         141.1046  138.3581  163.7371 N.ar    1  UNL1       -0.2120
      5 C         141.5276  139.4398  164.6862 C.ar    1  UNL1        0.2207
      6 N         141.5838  140.8651  164.2221 N.ar    1  UNL1       -0.2120
      7 C         139.8942  146.2240  161.8204 C.3     1  UNL1        0.0718
      8 C         140.6652  144.9392  161.8903 C.ar    1  UNL1        0.1208
      9 N         142.0543  144.7151  161.3704 N.ar    1  UNL1       -0.2293
     10 C         142.4300  143.2904  161.6512 C.ar    1  UNL1        0.1188
     11 C         141.2732  142.6339  162.3446 C.ar    1  UNL1        0.0981
     12 N         140.1825  143.6529  162.4924 N.ar    1  UNL1       -0.3155
     13 C         138.8440  143.4257  163.1302 C.3     1  UNL1        0.0868
     14 C         138.5772  143.9347  164.5157 C.3     1  UNL1        0.0245
     15 C         137.7722  142.6893  162.3824 C.3     1  UNL1        0.0245
     16 N         141.8945  139.0963  166.0995 N.pl3   1  UNL1       -0.2825
     17 H         142.3805  138.2623  166.2931 H       1  UNL1        0.1551
     18 C         141.5208  140.0235  167.2179 C.ar    1  UNL1        0.0527
     19 C         140.1322  139.9938  167.7845 C.ar    1  UNL1        0.0150
     20 C         139.7586  140.9209  168.9028 C.ar    1  UNL1        0.0080
     21 C         140.7735  141.8778  169.4546 C.ar    1  UNL1        0.0806
     22 C         142.1620  141.9075  168.8881 C.ar    1  UNL1        0.1457
     23 F         143.1769  142.8643  169.4399 F       1  UNL1       -0.2040
     24 C         142.5357  140.9803  167.7697 C.ar    1  UNL1        0.0444
     25 C         140.3997  142.8050  170.5730 C.2     1  UNL1        0.2449
     26 N         140.0771  144.2404  170.2811 N.am    1  UNL1       -0.3253
     27 O         140.3486  142.2966  171.9833 O.2     1  UNL1       -0.2703
     28 H         140.1106  144.5741  169.3555 H       1  UNL1        0.1453
     29 H         139.8318  144.8490  171.0151 H       1  UNL1        0.1453
@<TRIPOS>BOND
     1     7     8    1
     2     8     9   ar
     3     9    10   ar
     4    10    11   ar
     5    11     1    1
     6     1     2   ar
     7     2     3   ar
     8     3     4   ar
     9     4     5   ar
    10     5    16    1
    11    16    18    1
    12    18    19   ar
    13    19    20   ar
    14    20    21   ar
    15    21    25    1
    16    25    26   am
    17    25    27    2
    18    21    22   ar
    19    22    23    1
    20    22    24   ar
    21     5     6   ar
    22    11    12   ar
    23    12    13    1
    24    13    14    1
    25    13    15    1
    26    12     8   ar
    27     6     1   ar
    28    24    18   ar
    29    16    17    1
    30    26    28    1
    31    26    29    1
@<TRIPOS>MOLECULE
*****
 29 31 0 0 0
SMALL
GASTEIGER

@<TRIPOS>ATOM
      1 C         138.7963  140.2583  163.2301 C.ar    1  UNL1        0.1030
      2 C         139.0974  139.0123  162.4512 C.ar    1  UNL1        0.0414
      3 C         139.1485  137.6856  163.1491 C.ar    1  UNL1        0.1034
      4 N         138.8986  137.6049  164.6259 N.ar    1  UNL1       -0.2120
      5 C         138.5975  138.8509  165.4048 C.ar    1  UNL1        0.2207
      6 N         138.5464  140.1776  164.7069 N.ar    1  UNL1       -0.2120
      7 C         139.5127  145.3642  162.0908 C.3     1  UNL1        0.0718
      8 C         139.0744  143.9320  162.0085 C.ar    1  UNL1        0.1208
      9 N         138.2582  143.3216  160.9078 N.ar    1  UNL1       -0.2293
     10 C         138.0548  141.8712  161.2315 C.ar    1  UNL1        0.1188
     11 C         138.7451  141.5852  162.5322 C.ar    1  UNL1        0.0981
     12 N         139.3752  142.8589  163.0123 N.ar    1  UNL1       -0.3155
     13 C         140.1672  143.0295  164.2747 C.3     1  UNL1        0.0868
     14 C         139.5606  143.7349  165.4512 C.3     1  UNL1        0.0245
     15 C         141.5660  142.4945  164.3606 C.3     1  UNL1        0.0245
     16 N         138.3476  138.7702  166.8817 N.pl3   1  UNL1       -0.2825
     17 H         137.7556  138.0716  167.2433 H       1  UNL1        0.1551
     18 C         138.9997  139.7538  167.8075 C.ar    1  UNL1        0.0527
     19 C         138.5243  139.8787  169.2247 C.ar    1  UNL1        0.0150
     20 C         139.1763  140.8623  170.1506 C.ar    1  UNL1        0.0080
     21 C         140.3038  141.7211  169.6593 C.ar    1  UNL1        0.0806
     22 C         140.7793  141.5962  168.2422 C.ar    1  UNL1        0.1457
     23 F         141.9068  142.4549  167.7509 F       1  UNL1       -0.2040
     24 C         140.1272  140.6125  167.3163 C.ar    1  UNL1        0.0444
     25 C         140.9559  142.7047  170.5853 C.2     1  UNL1        0.2449
     26 N         140.9001  144.1723  170.2806 N.am    1  UNL1       -0.3253
     27 O         141.6638  142.2206  171.8160 O.2     1  UNL1       -0.2703
     28 H         140.4355  144.4900  169.4728 H       1  UNL1        0.1453
     29 H         141.3281  144.8179  170.8883 H       1  UNL1        0.1453
@<TRIPOS>BOND
     1     7     8    1
     2     8     9   ar
     3     9    10   ar
     4    10    11   ar
     5    11     1    1
     6     1     2   ar
     7     2     3   ar
     8     3     4   ar
     9     4     5   ar
    10     5    16    1
    11    16    18    1
    12    18    19   ar
    13    19    20   ar
    14    20    21   ar
    15    21    25    1
    16    25    26   am
    17    25    27    2
    18    21    22   ar
    19    22    23    1
    20    22    24   ar
    21     5     6   ar
    22    11    12   ar
    23    12    13    1
    24    13    14    1
    25    13    15    1
    26    12     8   ar
    27     6     1   ar
    28    24    18   ar
    29    16    17    1
    30    26    28    1
    31    26    29    1
@<TRIPOS>MOLECULE
*****
 29 31 0 0 0
SMALL
GASTEIGER

@<TRIPOS>ATOM
      1 C         143.0330  141.2900  162.7306 C.ar    1  UNL1        0.1030
      2 C         144.4995  140.9763  162.7596 C.ar    1  UNL1        0.0414
      3 C         145.0657  140.1400  163.8687 C.ar    1  UNL1        0.1034
      4 N         144.1654  139.6176  164.9487 N.ar    1  UNL1       -0.2120
      5 C         142.6989  139.9313  164.9197 C.ar    1  UNL1        0.2207
      6 N         142.1327  140.7675  163.8106 N.ar    1  UNL1       -0.2120
      7 C         141.0831  145.3783  160.0167 C.3     1  UNL1        0.0718
      8 C         141.5705  144.0054  160.3740 C.ar    1  UNL1        0.1208
      9 N         141.6204  142.8207  159.4553 N.ar    1  UNL1       -0.2293
     10 C         142.1743  141.6594  160.2263 C.ar    1  UNL1        0.1188
     11 C         142.4668  142.1263  161.6214 C.ar    1  UNL1        0.0981
     12 N         142.0936  143.5762  161.7127 N.ar    1  UNL1       -0.3155
     13 C         142.2211  144.4446  162.9292 C.3     1  UNL1        0.0868
     14 C         141.0224  144.7083  163.7914 C.3     1  UNL1        0.0245
     15 C         143.5474  145.0492  163.2833 C.3     1  UNL1        0.0245
     16 N         141.7985  139.4088  165.9997 N.pl3   1  UNL1       -0.2825
     17 H         141.4581  138.4862  165.9532 H       1  UNL1        0.1551
     18 C         141.4169  140.2920  167.1505 C.ar    1  UNL1        0.0527
     19 C         142.2684  141.4759  167.5018 C.ar    1  UNL1        0.0150
     20 C         141.8868  142.3591  168.6526 C.ar    1  UNL1        0.0080
     21 C         140.6537  142.0584  169.4521 C.ar    1  UNL1        0.0806
     22 C         139.8023  140.8745  169.1008 C.ar    1  UNL1        0.1457
     23 F         138.5693  140.5738  169.9003 F       1  UNL1       -0.2040
     24 C         140.1839  139.9913  167.9499 C.ar    1  UNL1        0.0444
     25 C         140.2721  142.9416  170.6029 C.2     1  UNL1        0.2449
     26 N         139.9458  144.3860  170.3638 N.am    1  UNL1       -0.3253
     27 O         140.2169  142.3804  171.9929 O.2     1  UNL1       -0.2703
     28 H         139.9821  144.7543  169.4515 H       1  UNL1        0.1453
     29 H         139.6954  144.9657  171.1191 H       1  UNL1        0.1453
@<TRIPOS>BOND
     1     7     8    1
     2     8     9   ar
     3     9    10   ar
     4    10    11   ar
     5    11     1    1
     6     1     2   ar
     7     2     3   ar
     8     3     4   ar
     9     4     5   ar
    10     5    16    1
    11    16    18    1
    12    18    19   ar
    13    19    20   ar
    14    20    21   ar
    15    21    25    1
    16    25    26   am
    17    25    27    2
    18    21    22   ar
    19    22    23    1
    20    22    24   ar
    21     5     6   ar
    22    11    12   ar
    23    12    13    1
    24    13    14    1
    25    13    15    1
    26    12     8   ar
    27     6     1   ar
    28    24    18   ar
    29    16    17    1
    30    26    28    1
    31    26    29    1
@<TRIPOS>MOLECULE
*****
 29 31 0 0 0
SMALL
GASTEIGER

@<TRIPOS>ATOM
      1 C         141.0014  138.9573  162.6495 C.ar    1  UNL1        0.1030
      2 C         140.1567  137.7192  162.7087 C.ar    1  UNL1        0.0414
      3 C         139.0205  137.6324  163.6841 C.ar    1  UNL1        0.1034
      4 N         138.7289  138.7838  164.6003 N.ar    1  UNL1       -0.2120
      5 C         139.5736  140.0219  164.5411 C.ar    1  UNL1        0.2207
      6 N         140.7098  140.1086  163.5657 N.ar    1  UNL1       -0.2120
      7 C         143.9872  140.3723  158.5308 C.3     1  UNL1        0.0718
      8 C         143.5101  139.6945  159.7810 C.ar    1  UNL1        0.1208
      9 N         144.2624  138.6606  160.5654 N.ar    1  UNL1       -0.2293
     10 C         143.4142  138.2587  161.7354 C.ar    1  UNL1        0.1188
     11 C         142.1377  139.0441  161.6741 C.ar    1  UNL1        0.0981
     12 N         142.1970  139.9314  160.4662 N.ar    1  UNL1       -0.3155
     13 C         141.1304  140.8878  160.0216 C.3     1  UNL1        0.0868
     14 C         140.0056  140.4065  159.1539 C.3     1  UNL1        0.0245
     15 C         141.1888  142.3258  160.4447 C.3     1  UNL1        0.0245
     16 N         139.2820  141.1733  165.4572 N.pl3   1  UNL1       -0.2825
     17 H         138.7491  141.9359  165.1352 H       1  UNL1        0.1551
     18 C         139.8024  141.1627  166.8640 C.ar    1  UNL1        0.0527
     19 C         139.3591  140.0949  167.8197 C.ar    1  UNL1        0.0150
     20 C         139.8795  140.0844  169.2265 C.ar    1  UNL1        0.0080
     21 C         140.8432  141.1417  169.6776 C.ar    1  UNL1        0.0806
     22 C         141.2865  142.2094  168.7220 C.ar    1  UNL1        0.1457
     23 F         142.2502  143.2667  169.1731 F       1  UNL1       -0.2040
     24 C         140.7661  142.2200  167.3151 C.ar    1  UNL1        0.0444
     25 C         141.3636  141.1311  171.0845 C.2     1  UNL1        0.2449
     26 N         142.5572  140.2936  171.4363 N.am    1  UNL1       -0.3253
     27 O         140.6903  141.9580  172.1394 O.2     1  UNL1       -0.2703
     28 H         142.9991  139.7509  170.7440 H       1  UNL1        0.1453
     29 H         142.8987  140.2867  172.3597 H       1  UNL1        0.1453
@<TRIPOS>BOND
     1     7     8    1
     2     8     9   ar
     3     9    10   ar
     4    10    11   ar
     5    11     1    1
     6     1     2   ar
     7     2     3   ar
     8     3     4   ar
     9     4     5   ar
    10     5    16    1
    11    16    18    1
    12    18    19   ar
    13    19    20   ar
    14    20    21   ar
    15    21    25    1
    16    25    26   am
    17    25    27    2
    18    21    22   ar
    19    22    23    1
    20    22    24   ar
    21     5     6   ar
    22    11    12   ar
    23    12    13    1
    24    13    14    1
    25    13    15    1
    26    12     8   ar
    27     6     1   ar
    28    24    18   ar
    29    16    17    1
    30    26    28    1
    31    26    29    1
@<TRIPOS>MOLECULE
*****
 29 31 0 0 0
SMALL
GASTEIGER

@<TRIPOS>ATOM
      1 C         139.7498  142.2693  162.2078 C.ar    1  UNL1        0.1030
      2 C         138.2715  142.2406  161.9551 C.ar    1  UNL1        0.0414
      3 C         137.3701  141.4608  162.8657 C.ar    1  UNL1        0.1034
      4 N         137.9469  140.7097  164.0290 N.ar    1  UNL1       -0.2120
      5 C         139.4252  140.7384  164.2816 C.ar    1  UNL1        0.2207
      6 N         140.3266  141.5182  163.3710 N.ar    1  UNL1       -0.2120
      7 C         142.7585  143.6455  158.0925 C.3     1  UNL1        0.0718
      8 C         142.0342  143.6817  159.4056 C.ar    1  UNL1        0.1208
      9 N         142.0429  144.8168  160.3863 N.ar    1  UNL1       -0.2293
     10 C         141.1882  144.4258  161.5553 C.ar    1  UNL1        0.1188
     11 C         140.6513  143.0492  161.2972 C.ar    1  UNL1        0.0981
     12 N         141.1742  142.5893  159.9686 N.ar    1  UNL1       -0.3155
     13 C         140.8874  141.2689  159.3173 C.3     1  UNL1        0.0868
     14 C         139.8532  141.1753  158.2350 C.3     1  UNL1        0.0245
     15 C         141.6350  140.0419  159.7484 C.3     1  UNL1        0.0245
     16 N         140.0020  139.9873  165.4448 N.pl3   1  UNL1       -0.2825
     17 H         140.3586  139.0788  165.3161 H       1  UNL1        0.1551
     18 C         140.0354  140.6205  166.8042 C.ar    1  UNL1        0.0527
     19 C         140.7205  141.9405  167.0002 C.ar    1  UNL1        0.0150
     20 C         140.7539  142.5736  168.3596 C.ar    1  UNL1        0.0080
     21 C         140.1023  141.8868  169.5230 C.ar    1  UNL1        0.0806
     22 C         139.4172  140.5669  169.3271 C.ar    1  UNL1        0.1457
     23 F         138.7656  139.8801  170.4906 F       1  UNL1       -0.2040
     24 C         139.3838  139.9337  167.9677 C.ar    1  UNL1        0.0444
     25 C         140.1357  142.5200  170.8825 C.2     1  UNL1        0.2449
     26 N         138.9771  143.3486  171.3526 N.am    1  UNL1       -0.3253
     27 O         141.3278  142.3247  171.7717 O.2     1  UNL1       -0.2703
     28 H         138.1947  143.4768  170.7690 H       1  UNL1        0.1453
     29 H         138.9990  143.7642  172.2448 H       1  UNL1        0.1453
@<TRIPOS>BOND
     1     7     8    1
     2     8     9   ar
     3     9    10   ar
     4    10    11   ar
     5    11     1    1
     6     1     2   ar
     7     2     3   ar
     8     3     4   ar
     9     4     5   ar
    10     5    16    1
    11    16    18    1
    12    18    19   ar
    13    19    20   ar
    14    20    21   ar
    15    21    25    1
    16    25    26   am
    17    25    27    2
    18    21    22   ar
    19    22    23    1
    20    22    24   ar
    21     5     6   ar
    22    11    12   ar
    23    12    13    1
    24    13    14    1
    25    13    15    1
    26    12     8   ar
    27     6     1   ar
    28    24    18   ar
    29    16    17    1
    30    26    28    1
    31    26    29    1
@<TRIPOS>MOLECULE
*****
 29 31 0 0 0
SMALL
GASTEIGER

@<TRIPOS>ATOM
      1 C         139.2516  139.2759  165.2926 C.ar    1  UNL1        0.1030
      2 C         139.3647  137.9085  164.6865 C.ar    1  UNL1        0.0414
      3 C         138.8236  137.6506  163.3115 C.ar    1  UNL1        0.1034
      4 N         138.1696  138.7600  162.5426 N.ar    1  UNL1       -0.2120
      5 C         138.0566  140.1274  163.1487 C.ar    1  UNL1        0.2207
      6 N         138.5976  140.3853  164.5237 N.ar    1  UNL1       -0.2120
      7 C         142.5805  140.1511  169.2969 C.3     1  UNL1        0.0718
      8 C         141.3228  139.9361  168.5082 C.ar    1  UNL1        0.1208
      9 N         139.9276  139.9254  169.0592 N.ar    1  UNL1       -0.2293
     10 C         138.9820  139.6768  167.9217 C.ar    1  UNL1        0.1188
     11 C         139.7927  139.5338  166.6677 C.ar    1  UNL1        0.0981
     12 N         141.2393  139.6941  167.0302 N.ar    1  UNL1       -0.3155
     13 C         142.3990  139.6246  166.0814 C.3     1  UNL1        0.0868
     14 C         142.7514  140.8146  165.2391 C.3     1  UNL1        0.0245
     15 C         143.2064  138.3648  165.9749 C.3     1  UNL1        0.0245
     16 N         137.4025  141.2369  162.3798 N.pl3   1  UNL1       -0.2825
     17 H         136.4260  141.3550  162.4205 H       1  UNL1        0.1551
     18 C         138.2363  142.1665  161.5488 C.ar    1  UNL1        0.0527
     19 C         138.5075  141.8461  160.1086 C.ar    1  UNL1        0.0150
     20 C         139.3413  142.7757  159.2776 C.ar    1  UNL1        0.0080
     21 C         139.9039  144.0257  159.8867 C.ar    1  UNL1        0.0806
     22 C         139.6328  144.3461  161.3267 C.ar    1  UNL1        0.1457
     23 F         140.1954  145.5961  161.9357 F       1  UNL1       -0.2040
     24 C         138.7989  143.4165  162.1578 C.ar    1  UNL1        0.0444
     25 C         140.7378  144.9553  159.0556 C.2     1  UNL1        0.2449
     26 N         142.2293  144.7997  159.0243 N.am    1  UNL1       -0.3253
     27 O         140.0799  146.0405  158.2557 O.2     1  UNL1       -0.2703
     28 H         142.6610  144.0875  159.5493 H       1  UNL1        0.1453
     29 H         142.7766  145.4099  158.4789 H       1  UNL1        0.1453
@<TRIPOS>BOND
     1     7     8    1
     2     8     9   ar
     3     9    10   ar
     4    10    11   ar
     5    11     1    1
     6     1     2   ar
     7     2     3   ar
     8     3     4   ar
     9     4     5   ar
    10     5    16    1
    11    16    18    1
    12    18    19   ar
    13    19    20   ar
    14    20    21   ar
    15    21    25    1
    16    25    26   am
    17    25    27    2
    18    21    22   ar
    19    22    23    1
    20    22    24   ar
    21     5     6   ar
    22    11    12   ar
    23    12    13    1
    24    13    14    1
    25    13    15    1
    26    12     8   ar
    27     6     1   ar
    28    24    18   ar
    29    16    17    1
    30    26    28    1
    31    26    29    1
@<TRIPOS>MOLECULE
*****
 29 31 0 0 0
SMALL
GASTEIGER

@<TRIPOS>ATOM
      1 C         141.8534  139.4345  163.0127 C.ar    1  UNL1        0.1030
      2 C         143.0911  138.7366  162.5320 C.ar    1  UNL1        0.0414
      3 C         144.4192  139.0515  163.1542 C.ar    1  UNL1        0.1034
      4 N         144.5095  140.0642  164.2570 N.ar    1  UNL1       -0.2120
      5 C         143.2718  140.7621  164.7377 C.ar    1  UNL1        0.2207
      6 N         141.9438  140.4472  164.1155 N.ar    1  UNL1       -0.2120
      7 C         137.3761  139.8617  160.2464 C.3     1  UNL1        0.0718
      8 C         138.4674  139.3160  161.1190 C.ar    1  UNL1        0.1208
      9 N         138.4959  137.9541  161.7472 N.ar    1  UNL1       -0.2293
     10 C         139.7678  137.8328  162.5330 C.ar    1  UNL1        0.1188
     11 C         140.5253  139.1196  162.3905 C.ar    1  UNL1        0.0981
     12 N         139.7216  140.0363  161.5166 N.ar    1  UNL1       -0.3155
     13 C         140.1047  141.4287  161.1114 C.3     1  UNL1        0.0868
     14 C         141.0817  141.6426  159.9935 C.3     1  UNL1        0.0245
     15 C         139.5108  142.6074  161.8242 C.3     1  UNL1        0.0245
     16 N         143.3621  141.7748  165.8405 N.pl3   1  UNL1       -0.2825
     17 H         143.8856  142.5985  165.7108 H       1  UNL1        0.1551
     18 C         142.6548  141.5327  167.1409 C.ar    1  UNL1        0.0527
     19 C         141.7177  142.5678  167.6890 C.ar    1  UNL1        0.0150
     20 C         141.0104  142.3257  168.9894 C.ar    1  UNL1        0.0080
     21 C         141.2402  141.0485  169.7417 C.ar    1  UNL1        0.0806
     22 C         142.1772  140.0134  169.1936 C.ar    1  UNL1        0.1457
     23 F         142.4070  138.7362  169.9459 F       1  UNL1       -0.2040
     24 C         142.8846  140.2555  167.8932 C.ar    1  UNL1        0.0444
     25 C         140.5328  140.8064  171.0422 C.2     1  UNL1        0.2449
     26 N         139.7783  139.5283  171.2589 N.am    1  UNL1       -0.3253
     27 O         140.5800  141.8425  172.1258 O.2     1  UNL1       -0.2703
     28 H         139.7473  138.8482  170.5477 H       1  UNL1        0.1453
     29 H         139.3140  139.3694  172.1124 H       1  UNL1        0.1453
@<TRIPOS>BOND
     1     7     8    1
     2     8     9   ar
     3     9    10   ar
     4    10    11   ar
     5    11     1    1
     6     1     2   ar
     7     2     3   ar
     8     3     4   ar
     9     4     5   ar
    10     5    16    1
    11    16    18    1
    12    18    19   ar
    13    19    20   ar
    14    20    21   ar
    15    21    25    1
    16    25    26   am
    17    25    27    2
    18    21    22   ar
    19    22    23    1
    20    22    24   ar
    21     5     6   ar
    22    11    12   ar
    23    12    13    1
    24    13    14    1
    25    13    15    1
    26    12     8   ar
    27     6     1   ar
    28    24    18   ar
    29    16    17    1
    30    26    28    1
    31    26    29    1
