@<TRIPOS>MOLECULE
*****
 39 43 0 0 0
SMALL
GASTEIGER

@<TRIPOS>ATOM
      1 C         143.2240  142.3729  167.4152 C.ar    1  UNL1        0.2221
      2 N         143.3638  142.4201  168.9080 N.ar    1  UNL1       -0.2119
      3 C         142.4523  141.6008  169.7729 C.ar    1  UNL1        0.1050
      4 C         141.4011  140.7344  169.1451 C.ar    1  UNL1        0.0596
      5 C         141.2612  140.6872  167.6524 C.ar    1  UNL1        0.1683
      6 N         142.1727  141.5064  166.7875 N.ar    1  UNL1       -0.1944
      7 N         140.2100  139.8208  167.0246 N.ar    1  UNL1       -0.2092
      8 C         140.2985  139.1610  165.6804 C.ar    1  UNL1        0.1179
      9 C         139.0288  138.3945  165.4558 C.ar    1  UNL1        0.0853
     10 C         138.1556  138.5806  166.6612 C.ar    1  UNL1        0.1364
     11 N         138.8857  139.4621  167.6308 N.ar    1  UNL1       -0.1608
     12 N         138.6916  137.5842  164.2394 N.pl3   1  UNL1       -0.3303
     13 H         138.3000  136.6864  164.3390 H       1  UNL1        0.1469
     14 C         138.9508  138.1417  162.8712 C.3     1  UNL1        0.0884
     15 C         137.9228  139.0097  162.2078 C.3     1  UNL1        0.0530
     16 C         138.1821  139.5672  160.8396 C.3     1  UNL1        0.1440
     17 O         139.4693  139.2569  160.1348 O.3     1  UNL1       -0.3522
     18 C         140.4973  138.3890  160.7982 C.3     1  UNL1        0.1592
     19 C         140.2380  137.8314  162.1664 C.3     1  UNL1        0.0990
     20 N         141.2660  136.9636  162.8297 N.3     1  UNL1       -0.3189
     21 H         142.0714  136.8584  162.2128 H       1  UNL1        0.1189
     22 H         140.8634  136.0465  163.0226 H       1  UNL1        0.1189
     23 N         144.1354  143.1921  166.5503 N.pl3   1  UNL1       -0.2824
     24 H         144.7962  143.7940  166.9630 H       1  UNL1        0.1551
     25 C         141.6704  143.9518  161.8844 C.ar    1  UNL1        0.1517
     26 N         142.1300  143.5922  160.5026 N.ar    1  UNL1       -0.2260
     27 C         143.4766  142.9414  160.6167 C.ar    1  UNL1        0.1248
     28 C         144.3051  142.4240  159.4783 C.3     1  UNL1        0.0722
     29 N         143.8493  142.8988  162.0690 N.ar    1  UNL1       -0.2920
     30 C         145.0610  142.3721  162.7792 C.ar    1  UNL1        0.0824
     31 C         145.1563  142.4699  164.2730 C.ar    1  UNL1        0.0337
     32 C         144.0400  143.0944  165.0565 C.ar    1  UNL1        0.0535
     33 C         142.8284  143.6211  164.3463 C.ar    1  UNL1        0.0339
     34 C         142.7330  143.5233  162.8525 C.ar    1  UNL1        0.0884
     35 C         137.9132  144.4727  163.0518 C.3     1  UNL1        0.1110
     36 N         139.2081  143.8022  162.6998 N.am    1  UNL1       -0.2979
     37 C         140.3756  144.6223  162.2364 C.2     1  UNL1        0.2651
     38 O         140.2481  146.1126  162.1250 O.2     1  UNL1       -0.2684
     39 H         139.2917  142.8240  162.7729 H       1  UNL1        0.1498
@<TRIPOS>BOND
     1    35    36    1
     2    36    37   am
     3    37    38    2
     4    37    25    1
     5    25    26   ar
     6    26    27   ar
     7    27    28    1
     8    27    29   ar
     9    29    30   ar
    10    30    31   ar
    11    31    32   ar
    12    32    23    1
    13    23     1    1
    14     1     2   ar
    15     2     3   ar
    16     3     4   ar
    17     4     5   ar
    18     5     7    1
    19     7     8   ar
    20     8     9   ar
    21     9    12    1
    22    14    12    1
    23    14    15    1
    24    15    16    1
    25    16    17    1
    26    17    18    1
    27    18    19    1
    28    19    20    1
    29     9    10   ar
    30    10    11   ar
    31     5     6   ar
    32    32    33   ar
    33    33    34   ar
    34    34    25   ar
    35    34    29   ar
    36     6     1   ar
    37    11     7   ar
    38    19    14    1
    39    36    39    1
    40    23    24    1
    41    12    13    1
    42    20    21    1
    43    20    22    1
@<TRIPOS>MOLECULE
*****
 39 43 0 0 0
SMALL
GASTEIGER

@<TRIPOS>ATOM
      1 C         139.8745  145.0918  161.2256 C.ar    1  UNL1        0.2221
      2 N         140.0636  145.9546  160.0133 N.ar    1  UNL1       -0.2119
      3 C         140.0955  145.3335  158.6483 C.ar    1  UNL1        0.1050
      4 C         139.9381  143.8497  158.4956 C.ar    1  UNL1        0.0596
      5 C         139.7490  142.9868  159.7079 C.ar    1  UNL1        0.1683
      6 N         139.7171  143.6079  161.0729 N.ar    1  UNL1       -0.1944
      7 N         139.5916  141.5030  159.5552 N.ar    1  UNL1       -0.2092
      8 C         139.5107  140.5053  160.6724 C.ar    1  UNL1        0.1179
      9 C         139.3567  139.1420  160.0662 C.ar    1  UNL1        0.0853
     10 C         139.3423  139.2971  158.5743 C.ar    1  UNL1        0.1364
     11 N         139.4876  140.7562  158.2585 N.ar    1  UNL1       -0.1608
     12 N         139.2378  137.8504  160.8196 N.pl3   1  UNL1       -0.3303
     13 H         138.9113  137.0420  160.3622 H       1  UNL1        0.1469
     14 C         139.6163  137.7904  162.2698 C.3     1  UNL1        0.0884
     15 C         138.5751  138.0124  163.3266 C.3     1  UNL1        0.0530
     16 C         138.9536  137.9524  164.7768 C.3     1  UNL1        0.1440
     17 O         140.3733  137.6705  165.1703 O.3     1  UNL1       -0.3522
     18 C         141.4146  137.4484  164.1135 C.3     1  UNL1        0.1592
     19 C         141.0360  137.5084  162.6633 C.3     1  UNL1        0.0990
     20 N         142.0772  137.2864  161.6067 N.3     1  UNL1       -0.3189
     21 H         142.9788  137.1095  162.0496 H       1  UNL1        0.1189
     22 H         142.1451  138.1157  161.0167 H       1  UNL1        0.1189
     23 N         139.8427  145.7128  162.5906 N.pl3   1  UNL1       -0.2824
     24 H         139.6809  146.6790  162.6882 H       1  UNL1        0.1551
     25 C         142.8299  142.6934  165.8130 C.ar    1  UNL1        0.1517
     26 N         142.4429  141.9974  167.0841 N.ar    1  UNL1       -0.2260
     27 C         140.9947  142.2855  167.3478 C.ar    1  UNL1        0.1248
     28 C         140.1949  141.7870  168.5148 C.3     1  UNL1        0.0722
     29 N         140.4866  143.1596  166.2398 N.ar    1  UNL1       -0.2920
     30 C         139.1377  143.7585  165.9720 C.ar    1  UNL1        0.0824
     31 C         138.9231  144.6096  164.7557 C.ar    1  UNL1        0.0337
     32 C         140.0574  144.8617  163.8071 C.ar    1  UNL1        0.0535
     33 C         141.4063  144.2628  164.0748 C.ar    1  UNL1        0.0339
     34 C         141.6209  143.4117  165.2912 C.ar    1  UNL1        0.0884
     35 C         145.8997  141.5751  163.5599 C.3     1  UNL1        0.1110
     36 N         144.5420  141.5939  164.1973 N.am    1  UNL1       -0.2979
     37 C         144.1876  142.6746  165.1756 C.2     1  UNL1        0.2651
     38 O         145.1910  143.7361  165.5163 O.2     1  UNL1       -0.2684
     39 H         143.8834  140.8971  163.9736 H       1  UNL1        0.1498
@<TRIPOS>BOND
     1    35    36    1
     2    36    37   am
     3    37    38    2
     4    37    25    1
     5    25    26   ar
     6    26    27   ar
     7    27    28    1
     8    27    29   ar
     9    29    30   ar
    10    30    31   ar
    11    31    32   ar
    12    32    23    1
    13    23     1    1
    14     1     2   ar
    15     2     3   ar
    16     3     4   ar
    17     4     5   ar
    18     5     7    1
    19     7     8   ar
    20     8     9   ar
    21     9    12    1
    22    14    12    1
    23    14    15    1
    24    15    16    1
    25    16    17    1
    26    17    18    1
    27    18    19    1
    28    19    20    1
    29     9    10   ar
    30    10    11   ar
    31     5     6   ar
    32    32    33   ar
    33    33    34   ar
    34    34    25   ar
    35    34    29   ar
    36     6     1   ar
    37    11     7   ar
    38    19    14    1
    39    36    39    1
    40    23    24    1
    41    12    13    1
    42    20    21    1
    43    20    22    1
@<TRIPOS>MOLECULE
*****
 39 43 0 0 0
SMALL
GASTEIGER

@<TRIPOS>ATOM
      1 C         144.0099  143.2755  161.9021 C.ar    1  UNL1        0.2221
      2 N         144.0484  144.6301  162.5452 N.ar    1  UNL1       -0.2119
      3 C         143.9230  144.7570  164.0346 C.ar    1  UNL1        0.1050
      4 C         143.7590  143.5294  164.8808 C.ar    1  UNL1        0.0596
      5 C         143.7205  142.1748  164.2377 C.ar    1  UNL1        0.1683
      6 N         143.8459  142.0478  162.7483 N.ar    1  UNL1       -0.1944
      7 N         143.5566  140.9472  165.0838 N.ar    1  UNL1       -0.2092
      8 C         143.1774  140.9207  166.5349 C.ar    1  UNL1        0.1179
      9 C         143.1295  139.4876  166.9754 C.ar    1  UNL1        0.0853
     10 C         143.4792  138.6284  165.7965 C.ar    1  UNL1        0.1364
     11 N         143.7431  139.5305  164.6275 N.ar    1  UNL1       -0.1608
     12 N         142.7914  138.9995  168.3528 N.pl3   1  UNL1       -0.3303
     13 H         143.2268  138.1917  168.7095 H       1  UNL1        0.1469
     14 C         141.7900  139.7420  169.1869 C.3     1  UNL1        0.0884
     15 C         140.4270  140.0387  168.6351 C.3     1  UNL1        0.0530
     16 C         139.4255  140.7813  169.4692 C.3     1  UNL1        0.1440
     17 O         139.7870  141.2271  170.8550 O.3     1  UNL1       -0.3522
     18 C         141.1499  140.9305  171.4068 C.3     1  UNL1        0.1592
     19 C         142.1514  140.1879  170.5727 C.3     1  UNL1        0.0990
     20 N         143.5142  139.8913  171.1245 N.3     1  UNL1       -0.3189
     21 H         143.5862  140.2639  172.0713 H       1  UNL1        0.1189
     22 H         144.2225  140.3261  170.5332 H       1  UNL1        0.1189
     23 N         144.1353  143.1485  160.4128 N.pl3   1  UNL1       -0.2824
     24 H         145.0227  143.0372  160.0012 H       1  UNL1        0.1551
     25 C         138.8799  142.7671  159.6004 C.ar    1  UNL1        0.1517
     26 N         138.1051  142.9366  158.3272 N.ar    1  UNL1       -0.2260
     27 C         139.0788  143.2513  157.2305 C.ar    1  UNL1        0.1248
     28 C         138.7361  143.4978  155.7911 C.3     1  UNL1        0.0722
     29 N         140.4554  143.2764  157.8258 N.ar    1  UNL1       -0.2920
     30 C         141.8049  143.5331  157.2235 C.ar    1  UNL1        0.0824
     31 C         143.0315  143.4904  158.0858 C.ar    1  UNL1        0.0337
     32 C         142.9086  143.1911  159.5505 C.ar    1  UNL1        0.0535
     33 C         141.5591  142.9345  160.1528 C.ar    1  UNL1        0.0339
     34 C         140.3325  142.9771  159.2905 C.ar    1  UNL1        0.0884
     35 C         137.6061  140.6927  162.7349 C.3     1  UNL1        0.1110
     36 N         138.1826  141.0156  161.3882 N.am    1  UNL1       -0.2979
     37 C         138.3034  142.4442  160.9470 C.2     1  UNL1        0.2651
     38 O         137.8478  143.5498  161.8525 O.2     1  UNL1       -0.2684
     39 H         138.4817  140.2899  160.7940 H       1  UNL1        0.1498
@<TRIPOS>BOND
     1    35    36    1
     2    36    37   am
     3    37    38    2
     4    37    25    1
     5    25    26   ar
     6    26    27   ar
     7    27    28    1
     8    27    29   ar
     9    29    30   ar
    10    30    31   ar
    11    31    32   ar
    12    32    23    1
    13    23     1    1
    14     1     2   ar
    15     2     3   ar
    16     3     4   ar
    17     4     5   ar
    18     5     7    1
    19     7     8   ar
    20     8     9   ar
    21     9    12    1
    22    14    12    1
    23    14    15    1
    24    15    16    1
    25    16    17    1
    26    17    18    1
    27    18    19    1
    28    19    20    1
    29     9    10   ar
    30    10    11   ar
    31     5     6   ar
    32    32    33   ar
    33    33    34   ar
    34    34    25   ar
    35    34    29   ar
    36     6     1   ar
    37    11     7   ar
    38    19    14    1
    39    36    39    1
    40    23    24    1
    41    12    13    1
    42    20    21    1
    43    20    22    1
@<TRIPOS>MOLECULE
*****
 39 43 0 0 0
SMALL
GASTEIGER

@<TRIPOS>ATOM
      1 C         138.2678  139.9436  162.3253 C.ar    1  UNL1        0.2221
      2 N         137.9267  138.5072  162.0603 N.ar    1  UNL1       -0.2119
      3 C         138.6047  137.4193  162.8394 C.ar    1  UNL1        0.1050
      4 C         139.6237  137.7679  163.8834 C.ar    1  UNL1        0.0596
      5 C         139.9648  139.2044  164.1484 C.ar    1  UNL1        0.1683
      6 N         139.2869  140.2922  163.3694 N.ar    1  UNL1       -0.1944
      7 N         140.9838  139.5529  165.1925 N.ar    1  UNL1       -0.2092
      8 C         141.0407  140.8300  165.9772 C.ar    1  UNL1        0.1179
      9 C         142.2169  140.7521  166.9049 C.ar    1  UNL1        0.0853
     10 C         142.8869  139.4267  166.6934 C.ar    1  UNL1        0.1364
     11 N         142.1247  138.6857  165.6351 N.ar    1  UNL1       -0.1608
     12 N         142.6475  141.8131  167.8738 N.pl3   1  UNL1       -0.3303
     13 H         143.4422  142.3616  167.6820 H       1  UNL1        0.1469
     14 C         141.8672  142.0383  169.1349 C.3     1  UNL1        0.0884
     15 C         140.6962  142.9760  169.1350 C.3     1  UNL1        0.0530
     16 C         139.9160  143.2012  170.3962 C.3     1  UNL1        0.1440
     17 O         140.3066  142.4890  171.6572 O.3     1  UNL1       -0.3522
     18 C         141.4775  141.5514  171.6570 C.3     1  UNL1        0.1592
     19 C         142.2578  141.3261  170.3959 C.3     1  UNL1        0.0990
     20 N         143.4286  140.3886  170.3958 N.3     1  UNL1       -0.3189
     21 H         143.5498  139.9958  171.3293 H       1  UNL1        0.1189
     22 H         144.2715  140.8972  170.1289 H       1  UNL1        0.1189
     23 N         137.5899  141.0315  161.5462 N.pl3   1  UNL1       -0.2824
     24 H         136.6142  141.1470  161.6087 H       1  UNL1        0.1551
     25 C         141.3196  144.7502  160.7190 C.ar    1  UNL1        0.1517
     26 N         141.7634  145.3739  159.4290 N.ar    1  UNL1       -0.2260
     27 C         140.9576  144.7664  158.3192 C.ar    1  UNL1        0.1248
     28 C         141.0733  145.0995  156.8612 C.3     1  UNL1        0.0722
     29 N         140.0159  143.7673  158.9233 N.ar    1  UNL1       -0.2920
     30 C         138.9835  142.8654  158.3144 C.ar    1  UNL1        0.0824
     31 C         138.1749  141.9535  159.1887 C.ar    1  UNL1        0.0337
     32 C         138.3986  141.9435  160.6719 C.ar    1  UNL1        0.0535
     33 C         139.4310  142.8454  161.2808 C.ar    1  UNL1        0.0339
     34 C         140.2396  143.7573  160.4065 C.ar    1  UNL1        0.0884
     35 C         143.8659  145.2116  163.7280 C.3     1  UNL1        0.1110
     36 N         143.3247  144.8975  162.3648 N.am    1  UNL1       -0.2979
     37 C         141.8609  145.0642  162.0822 C.2     1  UNL1        0.2651
     38 O         140.9385  145.5450  163.1630 O.2     1  UNL1       -0.2684
     39 H         143.9301  144.5820  161.6555 H       1  UNL1        0.1498
@<TRIPOS>BOND
     1    35    36    1
     2    36    37   am
     3    37    38    2
     4    37    25    1
     5    25    26   ar
     6    26    27   ar
     7    27    28    1
     8    27    29   ar
     9    29    30   ar
    10    30    31   ar
    11    31    32   ar
    12    32    23    1
    13    23     1    1
    14     1     2   ar
    15     2     3   ar
    16     3     4   ar
    17     4     5   ar
    18     5     7    1
    19     7     8   ar
    20     8     9   ar
    21     9    12    1
    22    14    12    1
    23    14    15    1
    24    15    16    1
    25    16    17    1
    26    17    18    1
    27    18    19    1
    28    19    20    1
    29     9    10   ar
    30    10    11   ar
    31     5     6   ar
    32    32    33   ar
    33    33    34   ar
    34    34    25   ar
    35    34    29   ar
    36     6     1   ar
    37    11     7   ar
    38    19    14    1
    39    36    39    1
    40    23    24    1
    41    12    13    1
    42    20    21    1
    43    20    22    1
@<TRIPOS>MOLECULE
*****
 39 43 0 0 0
SMALL
GASTEIGER

@<TRIPOS>ATOM
      1 C         138.4161  142.2380  161.5843 C.ar    1  UNL1        0.2221
      2 N         137.9255  143.6389  161.8011 N.ar    1  UNL1       -0.2119
      3 C         137.6864  144.1427  163.1936 C.ar    1  UNL1        0.1050
      4 C         137.9378  143.2457  164.3693 C.ar    1  UNL1        0.0596
      5 C         138.4283  141.8449  164.1525 C.ar    1  UNL1        0.1683
      6 N         138.6675  141.3410  162.7601 N.ar    1  UNL1       -0.1944
      7 N         138.6797  140.9479  165.3281 N.ar    1  UNL1       -0.2092
      8 C         139.6197  141.2252  166.4637 C.ar    1  UNL1        0.1179
      9 C         139.5562  140.0648  167.4120 C.ar    1  UNL1        0.0853
     10 C         138.5770  139.0702  166.8625 C.ar    1  UNL1        0.1364
     11 N         138.0353  139.6160  165.5746 N.ar    1  UNL1       -0.1608
     12 N         140.3352  139.9237  168.6861 N.pl3   1  UNL1       -0.3303
     13 H         140.2422  139.1099  169.2323 H       1  UNL1        0.1469
     14 C         141.2557  141.0225  169.1280 C.3     1  UNL1        0.0884
     15 C         142.6678  141.0662  168.6236 C.3     1  UNL1        0.0530
     16 C         143.5884  142.1650  169.0655 C.3     1  UNL1        0.1440
     17 O         143.0969  143.2200  170.0117 O.3     1  UNL1       -0.3522
     18 C         141.6849  143.1764  170.5161 C.3     1  UNL1        0.1592
     19 C         140.7643  142.0776  170.0742 C.3     1  UNL1        0.0990
     20 N         139.3524  142.0339  170.5785 N.3     1  UNL1       -0.3189
     21 H         139.1912  142.8212  171.2066 H       1  UNL1        0.1189
     22 H         139.1980  141.1603  171.0819 H       1  UNL1        0.1189
     23 N         138.6552  141.7341  160.1919 N.pl3   1  UNL1       -0.2824
     24 H         137.9063  141.3761  159.6626 H       1  UNL1        0.1551
     25 C         143.8763  142.7936  160.3959 C.ar    1  UNL1        0.1517
     26 N         144.9230  142.5972  159.3395 N.ar    1  UNL1       -0.2260
     27 C         144.2551  142.0198  158.1269 C.ar    1  UNL1        0.1248
     28 C         144.9285  141.6651  156.8343 C.3     1  UNL1        0.0722
     29 N         142.7957  141.8592  158.4338 N.ar    1  UNL1       -0.2920
     30 C         141.6497  141.3393  157.6175 C.ar    1  UNL1        0.0824
     31 C         140.2695  141.2976  158.2036 C.ar    1  UNL1        0.0337
     32 C         140.0354  141.7758  159.6059 C.ar    1  UNL1        0.0535
     33 C         141.1814  142.2957  160.4222 C.ar    1  UNL1        0.0339
     34 C         142.5615  142.3374  159.8361 C.ar    1  UNL1        0.0884
     35 C         143.6535  145.1744  163.5633 C.3     1  UNL1        0.1110
     36 N         143.4255  144.6194  162.1885 N.am    1  UNL1       -0.2979
     37 C         144.1043  143.3486  161.7706 C.2     1  UNL1        0.2651
     38 O         145.0109  142.6330  162.7275 O.2     1  UNL1       -0.2684
     39 H         142.8304  145.0891  161.5605 H       1  UNL1        0.1498
@<TRIPOS>BOND
     1    35    36    1
     2    36    37   am
     3    37    38    2
     4    37    25    1
     5    25    26   ar
     6    26    27   ar
     7    27    28    1
     8    27    29   ar
     9    29    30   ar
    10    30    31   ar
    11    31    32   ar
    12    32    23    1
    13    23     1    1
    14     1     2   ar
    15     2     3   ar
    16     3     4   ar
    17     4     5   ar
    18     5     7    1
    19     7     8   ar
    20     8     9   ar
    21     9    12    1
    22    14    12    1
    23    14    15    1
    24    15    16    1
    25    16    17    1
    26    17    18    1
    27    18    19    1
    28    19    20    1
    29     9    10   ar
    30    10    11   ar
    31     5     6   ar
    32    32    33   ar
    33    33    34   ar
    34    34    25   ar
    35    34    29   ar
    36     6     1   ar
    37    11     7   ar
    38    19    14    1
    39    36    39    1
    40    23    24    1
    41    12    13    1
    42    20    21    1
    43    20    22    1
@<TRIPOS>MOLECULE
*****
 39 43 0 0 0
SMALL
GASTEIGER

@<TRIPOS>ATOM
      1 C         140.8653  145.1270  161.5081 C.ar    1  UNL1        0.2221
      2 N         139.4515  145.5125  161.8284 N.ar    1  UNL1       -0.2119
      3 C         138.8514  145.1325  163.1496 C.ar    1  UNL1        0.1050
      4 C         139.6651  144.3670  164.1505 C.ar    1  UNL1        0.0596
      5 C         141.0789  143.9814  163.8303 C.ar    1  UNL1        0.1683
      6 N         141.6790  144.3614  162.5091 N.ar    1  UNL1       -0.1944
      7 N         141.8926  143.2159  164.8312 N.ar    1  UNL1       -0.2092
      8 C         141.4170  142.0517  165.6488 C.ar    1  UNL1        0.1179
      9 C         142.5552  141.5965  166.5131 C.ar    1  UNL1        0.0853
     10 C         143.7343  142.4793  166.2297 C.ar    1  UNL1        0.1364
     11 N         143.3248  143.4802  165.1902 N.ar    1  UNL1       -0.1608
     12 N         142.5204  140.4582  167.4895 N.pl3   1  UNL1       -0.3303
     13 H         143.0662  139.6548  167.3285 H       1  UNL1        0.1469
     14 C         141.6542  140.5441  168.7110 C.3     1  UNL1        0.0884
     15 C         140.1864  140.2509  168.6118 C.3     1  UNL1        0.0530
     16 C         139.3201  140.3367  169.8333 C.3     1  UNL1        0.1440
     17 O         139.9215  140.7159  171.1541 O.3     1  UNL1       -0.3522
     18 C         141.3893  141.0091  171.2534 C.3     1  UNL1        0.1592
     19 C         142.2556  140.9232  170.0318 C.3     1  UNL1        0.0990
     20 N         143.7232  141.2165  170.1311 N.3     1  UNL1       -0.3189
     21 H         143.9578  141.4551  171.0947 H       1  UNL1        0.1189
     22 H         143.9555  141.9999  169.5207 H       1  UNL1        0.1189
     23 N         141.4654  145.5069  160.1870 N.pl3   1  UNL1       -0.2824
     24 H         142.3009  146.0269  160.1572 H       1  UNL1        0.1551
     25 C         139.1030  146.5195  155.5161 C.ar    1  UNL1        0.1517
     26 N         138.5466  145.5567  154.5094 N.ar    1  UNL1       -0.2260
     27 C         138.7593  144.1665  155.0310 C.ar    1  UNL1        0.1248
     28 C         138.3551  142.8957  154.3441 C.3     1  UNL1        0.0722
     29 N         139.4471  144.2701  156.3599 N.ar    1  UNL1       -0.2920
     30 C         139.9074  143.2281  157.3358 C.ar    1  UNL1        0.0824
     31 C         140.5802  143.6404  158.6114 C.ar    1  UNL1        0.0337
     32 C         140.7926  145.0947  158.9113 C.ar    1  UNL1        0.0535
     33 C         140.3323  146.1367  157.9354 C.ar    1  UNL1        0.0339
     34 C         139.6595  145.7244  156.6598 C.ar    1  UNL1        0.0884
     35 C         138.4750  150.3466  156.3588 C.3     1  UNL1        0.1110
     36 N         138.4751  148.8511  156.4753 N.am    1  UNL1       -0.2979
     37 C         139.1029  148.0150  155.3996 C.2     1  UNL1        0.2651
     38 O         139.7305  148.6745  154.2075 O.2     1  UNL1       -0.2684
     39 H         138.0631  148.4183  157.2577 H       1  UNL1        0.1498
@<TRIPOS>BOND
     1    35    36    1
     2    36    37   am
     3    37    38    2
     4    37    25    1
     5    25    26   ar
     6    26    27   ar
     7    27    28    1
     8    27    29   ar
     9    29    30   ar
    10    30    31   ar
    11    31    32   ar
    12    32    23    1
    13    23     1    1
    14     1     2   ar
    15     2     3   ar
    16     3     4   ar
    17     4     5   ar
    18     5     7    1
    19     7     8   ar
    20     8     9   ar
    21     9    12    1
    22    14    12    1
    23    14    15    1
    24    15    16    1
    25    16    17    1
    26    17    18    1
    27    18    19    1
    28    19    20    1
    29     9    10   ar
    30    10    11   ar
    31     5     6   ar
    32    32    33   ar
    33    33    34   ar
    34    34    25   ar
    35    34    29   ar
    36     6     1   ar
    37    11     7   ar
    38    19    14    1
    39    36    39    1
    40    23    24    1
    41    12    13    1
    42    20    21    1
    43    20    22    1
@<TRIPOS>MOLECULE
*****
 39 43 0 0 0
SMALL
GASTEIGER

@<TRIPOS>ATOM
      1 C         143.7815  140.0683  159.3256 C.ar    1  UNL1        0.2221
      2 N         144.4571  139.9793  157.9894 N.ar    1  UNL1       -0.2119
      3 C         144.2227  141.0432  156.9582 C.ar    1  UNL1        0.1050
      4 C         143.3128  142.1960  157.2632 C.ar    1  UNL1        0.0596
      5 C         142.6371  142.2849  158.5995 C.ar    1  UNL1        0.1683
      6 N         142.8714  141.2211  159.6307 N.ar    1  UNL1       -0.1944
      7 N         141.7272  143.4376  158.9046 N.ar    1  UNL1       -0.2092
      8 C         141.0962  143.7354  160.2325 C.ar    1  UNL1        0.1179
      9 C         140.2675  144.9768  160.0839 C.ar    1  UNL1        0.0853
     10 C         140.3863  145.4463  158.6642 C.ar    1  UNL1        0.1364
     11 N         141.2884  144.4950  157.9354 N.ar    1  UNL1       -0.1608
     12 N         139.4615  145.6335  161.1652 N.pl3   1  UNL1       -0.3303
     13 H         139.0704  146.5245  161.0154 H       1  UNL1        0.1469
     14 C         139.2512  144.9326  162.4746 C.3     1  UNL1        0.0884
     15 C         138.0143  144.1135  162.6967 C.3     1  UNL1        0.0530
     16 C         137.8041  143.4126  164.0062 C.3     1  UNL1        0.1440
     17 O         138.8307  143.5308  165.0934 O.3     1  UNL1       -0.3522
     18 C         140.0676  144.3499  164.8713 C.3     1  UNL1        0.1592
     19 C         140.2778  145.0508  163.5618 C.3     1  UNL1        0.0990
     20 N         141.5146  145.8698  163.3398 N.3     1  UNL1       -0.3189
     21 H         142.0971  145.8398  164.1765 H       1  UNL1        0.1189
     22 H         141.2520  146.8356  163.1428 H       1  UNL1        0.1189
     23 N         144.0158  139.0045  160.3568 N.pl3   1  UNL1       -0.2824
     24 H         144.8146  138.4318  160.3005 H       1  UNL1        0.1551
     25 C         141.9224  140.2203  165.1069 C.ar    1  UNL1        0.1517
     26 N         140.7665  139.5852  165.8215 N.ar    1  UNL1       -0.2260
     27 C         140.2383  138.4792  164.9568 C.ar    1  UNL1        0.1248
     28 C         139.0834  137.5795  165.2836 C.3     1  UNL1        0.0722
     29 N         141.0676  138.4308  163.7078 N.ar    1  UNL1       -0.2920
     30 C         141.0095  137.5459  162.4981 C.ar    1  UNL1        0.0824
     31 C         141.9922  137.7372  161.3811 C.ar    1  UNL1        0.0337
     32 C         143.0330  138.8133  161.4739 C.ar    1  UNL1        0.0535
     33 C         143.0912  139.6982  162.6836 C.ar    1  UNL1        0.0339
     34 C         142.1084  139.5069  163.8006 C.ar    1  UNL1        0.0884
     35 C         144.0933  143.5423  165.1529 C.3     1  UNL1        0.1110
     36 N         143.2684  142.3951  164.6496 N.am    1  UNL1       -0.2979
     37 C         142.7473  141.3676  165.6103 C.2     1  UNL1        0.2651
     38 O         143.0513  141.4874  167.0742 O.2     1  UNL1       -0.2684
     39 H         143.0689  142.3165  163.6887 H       1  UNL1        0.1498
@<TRIPOS>BOND
     1    35    36    1
     2    36    37   am
     3    37    38    2
     4    37    25    1
     5    25    26   ar
     6    26    27   ar
     7    27    28    1
     8    27    29   ar
     9    29    30   ar
    10    30    31   ar
    11    31    32   ar
    12    32    23    1
    13    23     1    1
    14     1     2   ar
    15     2     3   ar
    16     3     4   ar
    17     4     5   ar
    18     5     7    1
    19     7     8   ar
    20     8     9   ar
    21     9    12    1
    22    14    12    1
    23    14    15    1
    24    15    16    1
    25    16    17    1
    26    17    18    1
    27    18    19    1
    28    19    20    1
    29     9    10   ar
    30    10    11   ar
    31     5     6   ar
    32    32    33   ar
    33    33    34   ar
    34    34    25   ar
    35    34    29   ar
    36     6     1   ar
    37    11     7   ar
    38    19    14    1
    39    36    39    1
    40    23    24    1
    41    12    13    1
    42    20    21    1
    43    20    22    1
@<TRIPOS>MOLECULE
*****
 39 43 0 0 0
SMALL
GASTEIGER

@<TRIPOS>ATOM
      1 C         140.8135  138.8989  162.0375 C.ar    1  UNL1        0.2221
      2 N         140.6689  137.5102  162.5857 N.ar    1  UNL1       -0.2119
      3 C         141.1270  137.2030  163.9807 C.ar    1  UNL1        0.1050
      4 C         141.7297  138.2846  164.8274 C.ar    1  UNL1        0.0596
      5 C         141.8743  139.6733  164.2792 C.ar    1  UNL1        0.1683
      6 N         141.4163  139.9805  162.8843 N.ar    1  UNL1       -0.1944
      7 N         142.4770  140.7548  165.1259 N.ar    1  UNL1       -0.2092
      8 C         142.4012  140.8495  166.6210 C.ar    1  UNL1        0.1179
      9 C         143.1387  142.0848  167.0453 C.ar    1  UNL1        0.0853
     10 C         143.6704  142.7536  165.8124 C.ar    1  UNL1        0.1364
     11 N         143.2615  141.9316  164.6262 N.ar    1  UNL1       -0.1608
     12 N         143.3138  142.5666  168.4550 N.pl3   1  UNL1       -0.3303
     13 H         144.1520  143.0074  168.7240 H       1  UNL1        0.1469
     14 C         142.2117  142.3770  169.4548 C.3     1  UNL1        0.0884
     15 C         141.0263  143.2961  169.4477 C.3     1  UNL1        0.0530
     16 C         139.9242  143.1064  170.4475 C.3     1  UNL1        0.1440
     17 O         140.0076  141.9977  171.4543 O.3     1  UNL1       -0.3522
     18 C         141.1931  141.0785  171.4614 C.3     1  UNL1        0.1592
     19 C         142.2951  141.2682  170.4616 C.3     1  UNL1        0.0990
     20 N         143.4805  140.3491  170.4687 N.3     1  UNL1       -0.3189
     21 H         143.3721  139.6602  171.2130 H       1  UNL1        0.1189
     22 H         144.3299  140.8909  170.6279 H       1  UNL1        0.1189
     23 N         140.3555  139.2061  160.6426 N.pl3   1  UNL1       -0.2824
     24 H         139.3981  139.3421  160.4576 H       1  UNL1        0.1551
     25 C         143.1457  137.2040  156.5646 C.ar    1  UNL1        0.1517
     26 N         144.1560  137.8815  155.6870 N.ar    1  UNL1       -0.2260
     27 C         144.2867  139.3043  156.1436 C.ar    1  UNL1        0.1248
     28 C         145.1885  140.3430  155.5454 C.3     1  UNL1        0.0722
     29 N         143.3572  139.5062  157.3035 N.ar    1  UNL1       -0.2920
     30 C         143.0618  140.7042  158.1563 C.ar    1  UNL1        0.0824
     31 C         142.0612  140.6042  159.2693 C.ar    1  UNL1        0.0337
     32 C         141.3561  139.3061  159.5295 C.ar    1  UNL1        0.0535
     33 C         141.6515  138.1080  158.6767 C.ar    1  UNL1        0.0339
     34 C         142.6520  138.2081  157.5637 C.ar    1  UNL1        0.0884
     35 C         143.1318  133.2507  156.9139 C.3     1  UNL1        0.1110
     36 N         143.5713  134.6812  157.0171 N.am    1  UNL1       -0.2979
     37 C         142.7063  135.7735  156.4614 C.2     1  UNL1        0.2651
     38 O         141.4020  135.4353  155.8024 O.2     1  UNL1       -0.2684
     39 H         144.4274  134.9032  157.4496 H       1  UNL1        0.1498
@<TRIPOS>BOND
     1    35    36    1
     2    36    37   am
     3    37    38    2
     4    37    25    1
     5    25    26   ar
     6    26    27   ar
     7    27    28    1
     8    27    29   ar
     9    29    30   ar
    10    30    31   ar
    11    31    32   ar
    12    32    23    1
    13    23     1    1
    14     1     2   ar
    15     2     3   ar
    16     3     4   ar
    17     4     5   ar
    18     5     7    1
    19     7     8   ar
    20     8     9   ar
    21     9    12    1
    22    14    12    1
    23    14    15    1
    24    15    16    1
    25    16    17    1
    26    17    18    1
    27    18    19    1
    28    19    20    1
    29     9    10   ar
    30    10    11   ar
    31     5     6   ar
    32    32    33   ar
    33    33    34   ar
    34    34    25   ar
    35    34    29   ar
    36     6     1   ar
    37    11     7   ar
    38    19    14    1
    39    36    39    1
    40    23    24    1
    41    12    13    1
    42    20    21    1
    43    20    22    1
@<TRIPOS>MOLECULE
*****
 39 43 0 0 0
SMALL
GASTEIGER

@<TRIPOS>ATOM
      1 C         144.3252  142.4097  159.4656 C.ar    1  UNL1        0.2221
      2 N         144.8992  142.6412  158.0992 N.ar    1  UNL1       -0.2119
      3 C         144.0591  142.3946  156.8812 C.ar    1  UNL1        0.1050
      4 C         142.6452  141.9164  157.0295 C.ar    1  UNL1        0.0596
      5 C         142.0712  141.6849  158.3959 C.ar    1  UNL1        0.1683
      6 N         142.9112  141.9315  159.6139 N.ar    1  UNL1       -0.1944
      7 N         140.6572  141.2067  158.5442 N.ar    1  UNL1       -0.2092
      8 C         140.0160  140.7312  159.8141 C.ar    1  UNL1        0.1179
      9 C         138.5987  140.3507  159.5035 C.ar    1  UNL1        0.0853
     10 C         138.3640  140.5911  158.0415 C.ar    1  UNL1        0.1364
     11 N         139.6363  141.1201  157.4487 N.ar    1  UNL1       -0.1608
     12 N         137.5927  139.8225  160.4828 N.pl3   1  UNL1       -0.3303
     13 H         136.6428  139.7659  160.2304 H       1  UNL1        0.1469
     14 C         138.0339  139.3807  161.8466 C.3     1  UNL1        0.0884
     15 C         138.8142  138.1096  162.0073 C.3     1  UNL1        0.0530
     16 C         139.2555  137.6678  163.3711 C.3     1  UNL1        0.1440
     17 O         138.9166  138.4969  164.5743 O.3     1  UNL1       -0.3522
     18 C         138.1363  139.7680  164.4136 C.3     1  UNL1        0.1592
     19 C         137.6950  140.2098  163.0498 C.3     1  UNL1        0.0990
     20 N         136.9149  141.4808  162.8892 N.3     1  UNL1       -0.3189
     21 H         136.7759  141.9122  163.8029 H       1  UNL1        0.1189
     22 H         136.0085  141.2727  162.4701 H       1  UNL1        0.1189
     23 N         145.1652  142.6563  160.6836 N.pl3   1  UNL1       -0.2824
     24 H         146.1188  142.8807  160.5867 H       1  UNL1        0.1551
     25 C         141.3128  143.6146  164.2423 C.ar    1  UNL1        0.1517
     26 N         141.2354  143.2091  165.6844 N.ar    1  UNL1       -0.2260
     27 C         142.4797  142.4403  166.0171 C.ar    1  UNL1        0.1248
     28 C         142.8182  141.8456  167.3519 C.3     1  UNL1        0.0722
     29 N         143.3261  142.3706  164.7807 N.ar    1  UNL1       -0.2920
     30 C         144.6603  141.7401  164.5119 C.ar    1  UNL1        0.0824
     31 C         145.2733  141.8354  163.1462 C.ar    1  UNL1        0.0337
     32 C         144.5521  142.5611  162.0493 C.ar    1  UNL1        0.0535
     33 C         143.2179  143.1916  162.3181 C.ar    1  UNL1        0.0339
     34 C         142.6049  143.0964  163.6838 C.ar    1  UNL1        0.0884
     35 C         139.6452  146.4172  161.9808 C.3     1  UNL1        0.1110
     36 N         140.6785  145.6315  162.7324 N.am    1  UNL1       -0.2979
     37 C         140.2795  144.4003  163.4907 C.2     1  UNL1        0.2651
     38 O         138.8472  143.9550  163.4974 O.2     1  UNL1       -0.2684
     39 H         141.6186  145.9239  162.7280 H       1  UNL1        0.1498
@<TRIPOS>BOND
     1    35    36    1
     2    36    37   am
     3    37    38    2
     4    37    25    1
     5    25    26   ar
     6    26    27   ar
     7    27    28    1
     8    27    29   ar
     9    29    30   ar
    10    30    31   ar
    11    31    32   ar
    12    32    23    1
    13    23     1    1
    14     1     2   ar
    15     2     3   ar
    16     3     4   ar
    17     4     5   ar
    18     5     7    1
    19     7     8   ar
    20     8     9   ar
    21     9    12    1
    22    14    12    1
    23    14    15    1
    24    15    16    1
    25    16    17    1
    26    17    18    1
    27    18    19    1
    28    19    20    1
    29     9    10   ar
    30    10    11   ar
    31     5     6   ar
    32    32    33   ar
    33    33    34   ar
    34    34    25   ar
    35    34    29   ar
    36     6     1   ar
    37    11     7   ar
    38    19    14    1
    39    36    39    1
    40    23    24    1
    41    12    13    1
    42    20    21    1
    43    20    22    1
