@<TRIPOS>MOLECULE
*****
 25 28 0 0 0
SMALL
GASTEIGER

@<TRIPOS>ATOM
      1 N         140.6701  140.0305  168.9809 N.3     1  UNL1       -0.2725
      2 C         139.4031  139.9460  168.1826 C.3     1  UNL1        0.0749
      3 C         139.4647  139.7981  166.6912 C.3     1  UNL1        0.0490
      4 C         140.7934  139.7346  165.9981 C.3     1  UNL1        0.1196
      5 C         142.0605  139.8191  166.7964 C.3     1  UNL1        0.0490
      6 C         141.9988  139.9670  168.2878 C.3     1  UNL1        0.0749
      7 O         139.6171  139.6379  165.0723 O.3     1  UNL1       -0.3265
      8 C         140.1388  139.5009  163.6726 C.3     1  UNL1        0.2783
      9 C         141.6376  139.5131  163.7333 C.ar    1  UNL1        0.1162
     10 C         142.0421  139.6575  165.1705 C.ar    1  UNL1        0.0415
     11 C         143.5408  139.6697  165.2312 C.ar    1  UNL1        0.1198
     12 N         144.0626  139.5327  163.8316 N.ar    1  UNL1       -0.1639
     13 N         142.8862  139.4360  162.9059 N.ar    1  UNL1       -0.2291
     14 C         142.9479  139.2880  161.4145 C.ar    1  UNL1        0.0826
     15 C         142.2581  138.1359  160.7459 C.ar    1  UNL1        0.0191
     16 C         142.3198  137.9879  159.2545 C.ar    1  UNL1        0.0015
     17 C         143.0711  138.9922  158.4316 C.ar    1  UNL1        0.0001
     18 C         143.7607  140.1443  159.1002 C.ar    1  UNL1        0.0015
     19 C         143.6991  140.2922  160.5916 C.ar    1  UNL1        0.0191
     20 O         139.3077  139.3741  162.4304 O.3     1  UNL1       -0.3233
     21 C         138.5199  138.1225  162.1796 C.3     1  UNL1        0.1772
     22 C         140.6085  140.1784  170.4723 C.3     1  UNL1        0.0721
     23 C         140.7591  141.5331  171.0985 C.3     1  UNL1        0.0173
     24 C         140.4878  143.6351  169.5958 C.3     1  UNL1        0.0000
     25 C         139.9278  142.6819  170.6097 C.3     1  UNL1        0.0014
@<TRIPOS>BOND
     1    24    25    1
     2    25    23    1
     3    23    22    1
     4    22     1    1
     5     1     2    1
     6     2     3    1
     7     3     4    1
     8     4     5    1
     9     5     6    1
    10     4     7    1
    11     7     8    1
    12     8    20    1
    13    20    21    1
    14     8     9    1
    15     9    10   ar
    16    10    11   ar
    17    11    12   ar
    18    12    13   ar
    19    13    14    1
    20    14    15   ar
    21    15    16   ar
    22    16    17   ar
    23    17    18   ar
    24    18    19   ar
    25     6     1    1
    26    13     9   ar
    27    19    14   ar
    28    10     4    1
@<TRIPOS>MOLECULE
*****
 25 28 0 0 0
SMALL
GASTEIGER

@<TRIPOS>ATOM
      1 N         140.6812  138.7057  160.0485 N.3     1  UNL1       -0.2725
      2 C         139.3884  138.2044  160.6205 C.3     1  UNL1        0.0749
      3 C         139.0150  138.5369  162.0347 C.3     1  UNL1        0.0490
      4 C         139.9345  139.3707  162.8769 C.3     1  UNL1        0.1196
      5 C         141.2273  139.8720  162.3049 C.3     1  UNL1        0.0490
      6 C         141.6007  139.5395  160.8907 C.3     1  UNL1        0.0749
      7 O         138.6817  138.9426  163.5820 O.3     1  UNL1       -0.3265
      8 C         138.7212  139.4970  164.9752 C.3     1  UNL1        0.2783
      9 C         139.9985  140.2678  165.1312 C.ar    1  UNL1        0.1162
     10 C         140.7483  140.1898  163.8344 C.ar    1  UNL1        0.0415
     11 C         142.0256  140.9606  163.9904 C.ar    1  UNL1        0.1198
     12 N         142.0653  141.5151  165.3836 N.ar    1  UNL1       -0.1639
     13 N         140.8124  141.0869  166.0886 N.ar    1  UNL1       -0.2291
     14 C         140.4390  141.4194  167.5028 C.ar    1  UNL1        0.0826
     15 C         140.6574  142.8068  168.0298 C.ar    1  UNL1        0.0191
     16 C         140.2840  143.1393  169.4440 C.ar    1  UNL1        0.0015
     17 C         139.6923  142.0844  170.3313 C.ar    1  UNL1        0.0001
     18 C         139.4740  140.6971  169.8043 C.ar    1  UNL1        0.0015
     19 C         139.8473  140.3646  168.3901 C.ar    1  UNL1        0.0191
     20 O         137.6684  139.3129  166.0276 O.3     1  UNL1       -0.3233
     21 C         137.5685  138.0129  166.7692 C.3     1  UNL1        0.1772
     22 C         141.0546  138.3732  158.6342 C.3     1  UNL1        0.0721
     23 C         142.4728  138.0205  158.2961 C.3     1  UNL1        0.0173
     24 C         141.6597  136.4473  156.3950 C.3     1  UNL1        0.0000
     25 C         142.7587  136.9529  157.2819 C.3     1  UNL1        0.0014
@<TRIPOS>BOND
     1    24    25    1
     2    25    23    1
     3    23    22    1
     4    22     1    1
     5     1     2    1
     6     2     3    1
     7     3     4    1
     8     4     5    1
     9     5     6    1
    10     4     7    1
    11     7     8    1
    12     8    20    1
    13    20    21    1
    14     8     9    1
    15     9    10   ar
    16    10    11   ar
    17    11    12   ar
    18    12    13   ar
    19    13    14    1
    20    14    15   ar
    21    15    16   ar
    22    16    17   ar
    23    17    18   ar
    24    18    19   ar
    25     6     1    1
    26    13     9   ar
    27    19    14   ar
    28    10     4    1
@<TRIPOS>MOLECULE
*****
 25 28 0 0 0
SMALL
GASTEIGER

@<TRIPOS>ATOM
      1 N         140.8018  140.0296  168.9220 N.3     1  UNL1       -0.2725
      2 C         142.1166  139.8358  168.2266 C.3     1  UNL1        0.0749
      3 C         142.1674  139.7453  166.7302 C.3     1  UNL1        0.0490
      4 C         140.9035  139.8487  165.9292 C.3     1  UNL1        0.1196
      5 C         139.5887  140.0426  166.6245 C.3     1  UNL1        0.0490
      6 C         139.5378  140.1330  168.1209 C.3     1  UNL1        0.0749
      7 O         142.1379  139.6566  165.0989 O.3     1  UNL1       -0.3265
      8 C         141.7262  139.6236  163.6569 C.3     1  UNL1        0.2783
      9 C         140.2373  139.7953  163.5959 C.ar    1  UNL1        0.1162
     10 C         139.7289  139.9344  165.0002 C.ar    1  UNL1        0.0415
     11 C         138.2400  140.1060  164.9392 C.ar    1  UNL1        0.1198
     12 N         137.8282  140.0730  163.4972 N.ar    1  UNL1       -0.1639
     13 N         139.0627  139.8809  162.6671 N.ar    1  UNL1       -0.2291
     14 C         139.1136  139.7904  161.1707 C.ar    1  UNL1        0.0826
     15 C         138.5143  140.8807  160.3326 C.ar    1  UNL1        0.0191
     16 C         138.5652  140.7902  158.8362 C.ar    1  UNL1        0.0015
     17 C         139.2153  139.6095  158.1779 C.ar    1  UNL1        0.0001
     18 C         139.8145  138.5193  159.0159 C.ar    1  UNL1        0.0015
     19 C         139.7637  138.6098  160.5124 C.ar    1  UNL1        0.0191
     20 O         142.6426  139.4495  162.4822 O.3     1  UNL1       -0.3233
     21 C         143.1879  138.0920  162.1511 C.3     1  UNL1        0.1772
     22 C         140.7509  140.1201  170.4184 C.3     1  UNL1        0.0721
     23 C         140.8658  141.4547  171.0934 C.3     1  UNL1        0.0173
     24 C         140.5058  143.6212  169.7052 C.3     1  UNL1        0.0000
     25 C         139.9858  142.5909  170.6635 C.3     1  UNL1        0.0014
@<TRIPOS>BOND
     1    24    25    1
     2    25    23    1
     3    23    22    1
     4    22     1    1
     5     1     2    1
     6     2     3    1
     7     3     4    1
     8     4     5    1
     9     5     6    1
    10     4     7    1
    11     7     8    1
    12     8    20    1
    13    20    21    1
    14     8     9    1
    15     9    10   ar
    16    10    11   ar
    17    11    12   ar
    18    12    13   ar
    19    13    14    1
    20    14    15   ar
    21    15    16   ar
    22    16    17   ar
    23    17    18   ar
    24    18    19   ar
    25     6     1    1
    26    13     9   ar
    27    19    14   ar
    28    10     4    1
@<TRIPOS>MOLECULE
*****
 25 28 0 0 0
SMALL
GASTEIGER

@<TRIPOS>ATOM
      1 N         142.2617  137.9441  157.6127 N.3     1  UNL1       -0.2725
      2 C         140.8345  138.4011  157.5490 C.3     1  UNL1        0.0749
      3 C         140.0744  138.6654  158.8149 C.3     1  UNL1        0.0490
      4 C         140.7415  138.4725  160.1444 C.3     1  UNL1        0.1196
      5 C         142.1687  138.0154  160.2081 C.3     1  UNL1        0.0490
      6 C         142.9288  137.7512  158.9422 C.3     1  UNL1        0.0749
      7 O         139.3165  138.9314  160.2377 O.3     1  UNL1       -0.3265
      8 C         138.9672  139.0667  161.6902 C.3     1  UNL1        0.2783
      9 C         140.1764  138.6915  162.4946 C.ar    1  UNL1        0.1162
     10 C         141.2730  138.3242  161.5392 C.ar    1  UNL1        0.0415
     11 C         142.4821  137.9490  162.3436 C.ar    1  UNL1        0.1198
     12 N         142.1329  138.0843  163.7962 N.ar    1  UNL1       -0.1639
     13 N         140.7079  138.5432  163.8894 N.ar    1  UNL1       -0.2291
     14 C         139.9478  138.8074  165.1552 C.ar    1  UNL1        0.0826
     15 C         140.4719  139.7985  166.1518 C.ar    1  UNL1        0.0191
     16 C         139.7118  140.0627  167.4177 C.ar    1  UNL1        0.0015
     17 C         138.4275  139.3359  167.6869 C.ar    1  UNL1        0.0001
     18 C         137.9035  138.3449  166.6904 C.ar    1  UNL1        0.0015
     19 C         138.6636  138.0806  165.4245 C.ar    1  UNL1        0.0191
     20 O         137.6415  139.5010  162.2415 O.3     1  UNL1       -0.3233
     21 C         137.5288  140.7952  162.9914 C.3     1  UNL1        0.1772
     22 C         143.0219  137.6799  156.3468 C.3     1  UNL1        0.0721
     23 C         142.8623  136.3687  155.6359 C.3     1  UNL1        0.0173
     24 C         143.4951  134.3147  157.0955 C.3     1  UNL1        0.0000
     25 C         143.7892  135.2305  155.9445 C.3     1  UNL1        0.0014
@<TRIPOS>BOND
     1    24    25    1
     2    25    23    1
     3    23    22    1
     4    22     1    1
     5     1     2    1
     6     2     3    1
     7     3     4    1
     8     4     5    1
     9     5     6    1
    10     4     7    1
    11     7     8    1
    12     8    20    1
    13    20    21    1
    14     8     9    1
    15     9    10   ar
    16    10    11   ar
    17    11    12   ar
    18    12    13   ar
    19    13    14    1
    20    14    15   ar
    21    15    16   ar
    22    16    17   ar
    23    17    18   ar
    24    18    19   ar
    25     6     1    1
    26    13     9   ar
    27    19    14   ar
    28    10     4    1
@<TRIPOS>MOLECULE
*****
 25 28 0 0 0
SMALL
GASTEIGER

@<TRIPOS>ATOM
      1 N         139.0220  139.1986  157.0744 N.3     1  UNL1       -0.2725
      2 C         138.0260  140.2258  157.5248 C.3     1  UNL1        0.0749
      3 C         137.8411  140.5003  158.9878 C.3     1  UNL1        0.0490
      4 C         138.6522  139.7477  160.0005 C.3     1  UNL1        0.1196
      5 C         139.6483  138.7206  159.5501 C.3     1  UNL1        0.0490
      6 C         139.8332  138.4460  158.0871 C.3     1  UNL1        0.0749
      7 O         137.6995  140.7404  160.5978 O.3     1  UNL1       -0.3265
      8 C         137.8460  140.6839  162.0896 C.3     1  UNL1        0.2783
      9 C         138.8895  139.6564  162.4142 C.ar    1  UNL1        0.1162
     10 C         139.3877  139.0778  161.1231 C.ar    1  UNL1        0.0415
     11 C         140.4311  138.0502  161.4478 C.ar    1  UNL1        0.1198
     12 N         140.5778  137.9937  162.9396 N.ar    1  UNL1       -0.1639
     13 N         139.6249  138.9864  163.5368 N.ar    1  UNL1       -0.2291
     14 C         139.4401  139.2610  164.9998 C.ar    1  UNL1        0.0826
     15 C         138.2607  138.6868  165.7274 C.ar    1  UNL1        0.0191
     16 C         138.0758  138.9613  167.1905 C.ar    1  UNL1        0.0015
     17 C         139.0703  139.8100  167.9258 C.ar    1  UNL1        0.0001
     18 C         140.2496  140.3841  167.1982 C.ar    1  UNL1        0.0015
     19 C         140.4345  140.1096  165.7351 C.ar    1  UNL1        0.0191
     20 O         137.0832  141.5100  163.0823 O.3     1  UNL1       -0.3233
     21 C         137.8178  142.4106  164.0306 C.3     1  UNL1        0.1772
     22 C         139.2069  138.9241  155.6114 C.3     1  UNL1        0.0721
     23 C         138.6946  137.6454  155.0177 C.3     1  UNL1        0.0173
     24 C         136.4391  138.7059  154.2840 C.3     1  UNL1        0.0000
     25 C         137.5054  137.6664  154.1037 C.3     1  UNL1        0.0014
@<TRIPOS>BOND
     1    24    25    1
     2    25    23    1
     3    23    22    1
     4    22     1    1
     5     1     2    1
     6     2     3    1
     7     3     4    1
     8     4     5    1
     9     5     6    1
    10     4     7    1
    11     7     8    1
    12     8    20    1
    13    20    21    1
    14     8     9    1
    15     9    10   ar
    16    10    11   ar
    17    11    12   ar
    18    12    13   ar
    19    13    14    1
    20    14    15   ar
    21    15    16   ar
    22    16    17   ar
    23    17    18   ar
    24    18    19   ar
    25     6     1    1
    26    13     9   ar
    27    19    14   ar
    28    10     4    1
@<TRIPOS>MOLECULE
*****
 25 28 0 0 0
SMALL
GASTEIGER

@<TRIPOS>ATOM
      1 N         141.4665  144.9920  159.4607 N.3     1  UNL1       -0.2725
      2 C         142.2767  143.7349  159.5750 C.3     1  UNL1        0.0749
      3 C         142.2542  142.9413  160.8477 C.3     1  UNL1        0.0490
      4 C         141.4215  143.4048  162.0060 C.3     1  UNL1        0.1196
      5 C         140.6113  144.6619  161.8916 C.3     1  UNL1        0.0490
      6 C         140.6337  145.4555  160.6190 C.3     1  UNL1        0.0749
      7 O         142.1757  142.1346  162.2664 O.3     1  UNL1       -0.3265
      8 C         141.8612  141.6868  163.6631 C.3     1  UNL1        0.2783
      9 C         140.9126  142.6802  164.2658 C.ar    1  UNL1        0.1162
     10 C         140.6409  143.7420  163.2417 C.ar    1  UNL1        0.0415
     11 C         139.6923  144.7354  163.8444 C.ar    1  UNL1        0.1198
     12 N         139.3777  144.2876  165.2411 N.ar    1  UNL1       -0.1639
     13 N         140.1320  143.0174  165.5014 N.ar    1  UNL1       -0.2291
     14 C         140.1096  142.2238  166.7741 C.ar    1  UNL1        0.0826
     15 C         140.5597  142.8538  168.0588 C.ar    1  UNL1        0.0191
     16 C         140.5372  142.0602  169.3315 C.ar    1  UNL1        0.0015
     17 C         140.0646  140.6366  169.3194 C.ar    1  UNL1        0.0001
     18 C         139.6145  140.0067  168.0347 C.ar    1  UNL1        0.0015
     19 C         139.6370  140.8003  166.7620 C.ar    1  UNL1        0.0191
     20 O         142.4006  140.4608  164.3384 O.3     1  UNL1       -0.3233
     21 C         143.2307  140.5928  165.5808 C.3     1  UNL1        0.1772
     22 C         141.4889  145.7856  158.1880 C.3     1  UNL1        0.0721
     23 C         140.3242  145.7237  157.2449 C.3     1  UNL1        0.0173
     24 C         139.0251  147.1987  155.5458 C.3     1  UNL1        0.0000
     25 C         140.3094  146.5810  156.0141 C.3     1  UNL1        0.0014
@<TRIPOS>BOND
     1    24    25    1
     2    25    23    1
     3    23    22    1
     4    22     1    1
     5     1     2    1
     6     2     3    1
     7     3     4    1
     8     4     5    1
     9     5     6    1
    10     4     7    1
    11     7     8    1
    12     8    20    1
    13    20    21    1
    14     8     9    1
    15     9    10   ar
    16    10    11   ar
    17    11    12   ar
    18    12    13   ar
    19    13    14    1
    20    14    15   ar
    21    15    16   ar
    22    16    17   ar
    23    17    18   ar
    24    18    19   ar
    25     6     1    1
    26    13     9   ar
    27    19    14   ar
    28    10     4    1
@<TRIPOS>MOLECULE
*****
 25 28 0 0 0
SMALL
GASTEIGER

@<TRIPOS>ATOM
      1 N         142.3430  144.1630  159.2729 N.3     1  UNL1       -0.2725
      2 C         141.2111  144.7722  160.0459 C.3     1  UNL1        0.0749
      3 C         141.0240  144.4326  161.4949 C.3     1  UNL1        0.0490
      4 C         141.9689  143.4839  162.1710 C.3     1  UNL1        0.1196
      5 C         143.1008  142.8747  161.3980 C.3     1  UNL1        0.0490
      6 C         143.2879  143.2143  159.9489 C.3     1  UNL1        0.0749
      7 O         140.8889  144.0120  163.0680 O.3     1  UNL1       -0.3265
      8 C         141.0815  143.4111  164.4288 C.3     1  UNL1        0.2783
      9 C         142.2806  142.5116  164.3728 C.ar    1  UNL1        0.1162
     10 C         142.8290  142.5566  162.9774 C.ar    1  UNL1        0.0415
     11 C         144.0281  141.6571  162.9214 C.ar    1  UNL1        0.1198
     12 N         144.2208  141.0562  164.2822 N.ar    1  UNL1       -0.1639
     13 N         143.1407  141.5843  165.1792 N.ar    1  UNL1       -0.2291
     14 C         142.9536  141.2448  166.6282 C.ar    1  UNL1        0.0826
     15 C         143.0557  142.3195  167.6696 C.ar    1  UNL1        0.0191
     16 C         142.8687  141.9800  169.1187 C.ar    1  UNL1        0.0015
     17 C         142.5795  140.5656  169.5263 C.ar    1  UNL1        0.0001
     18 C         142.4774  139.4909  168.4849 C.ar    1  UNL1        0.0015
     19 C         142.6644  139.8305  167.0358 C.ar    1  UNL1        0.0191
     20 O         140.2253  143.6651  165.6340 O.3     1  UNL1       -0.3233
     21 C         139.0507  144.5929  165.5374 C.3     1  UNL1        0.1772
     22 C         142.5301  144.5026  157.8239 C.3     1  UNL1        0.0721
     23 C         142.1250  145.8530  157.3116 C.3     1  UNL1        0.0173
     24 C         139.7072  146.6383  156.7753 C.3     1  UNL1        0.0000
     25 C         140.9837  145.9775  156.3463 C.3     1  UNL1        0.0014
@<TRIPOS>BOND
     1    24    25    1
     2    25    23    1
     3    23    22    1
     4    22     1    1
     5     1     2    1
     6     2     3    1
     7     3     4    1
     8     4     5    1
     9     5     6    1
    10     4     7    1
    11     7     8    1
    12     8    20    1
    13    20    21    1
    14     8     9    1
    15     9    10   ar
    16    10    11   ar
    17    11    12   ar
    18    12    13   ar
    19    13    14    1
    20    14    15   ar
    21    15    16   ar
    22    16    17   ar
    23    17    18   ar
    24    18    19   ar
    25     6     1    1
    26    13     9   ar
    27    19    14   ar
    28    10     4    1
@<TRIPOS>MOLECULE
*****
 25 28 0 0 0
SMALL
GASTEIGER

@<TRIPOS>ATOM
      1 N         142.7940  140.7943  168.8695 N.3     1  UNL1       -0.2725
      2 C         143.0235  142.1185  168.2034 C.3     1  UNL1        0.0749
      3 C         143.0568  142.2093  166.7065 C.3     1  UNL1        0.0490
      4 C         142.8604  140.9759  165.8758 C.3     1  UNL1        0.1196
      5 C         142.6308  139.6518  166.5419 C.3     1  UNL1        0.0490
      6 C         142.5976  139.5609  168.0388 C.3     1  UNL1        0.0749
      7 O         143.0789  142.2239  165.0728 O.3     1  UNL1       -0.3265
      8 C         143.0345  141.8540  163.6198 C.3     1  UNL1        0.2783
      9 C         142.7885  140.3774  163.5247 C.ar    1  UNL1        0.1162
     10 C         142.6810  139.8347  164.9190 C.ar    1  UNL1        0.0415
     11 C         142.4350  138.3581  164.8239 C.ar    1  UNL1        0.1198
     12 N         142.3906  137.9881  163.3709 N.ar    1  UNL1       -0.1639
     13 N         142.6091  139.2361  162.5681 N.ar    1  UNL1       -0.2291
     14 C         142.6423  139.3270  161.0712 C.ar    1  UNL1        0.0826
     15 C         141.5451  138.7070  160.2577 C.ar    1  UNL1        0.0191
     16 C         141.5783  138.7978  158.7608 C.ar    1  UNL1        0.0015
     17 C         142.7088  139.5086  158.0774 C.ar    1  UNL1        0.0001
     18 C         143.8059  140.1286  158.8910 C.ar    1  UNL1        0.0015
     19 C         143.7727  140.0377  160.3878 C.ar    1  UNL1        0.0191
     20 O         143.2059  142.7955  162.4647 O.3     1  UNL1       -0.3233
     21 C         143.1783  144.2775  162.6946 C.3     1  UNL1        0.1772
     22 C         142.7607  140.7035  170.3664 C.3     1  UNL1        0.0721
     23 C         141.4730  140.9253  171.1028 C.3     1  UNL1        0.0173
     24 C         139.2769  140.6205  169.7484 C.3     1  UNL1        0.0000
     25 C         140.2619  140.1102  170.7582 C.3     1  UNL1        0.0014
@<TRIPOS>BOND
     1    24    25    1
     2    25    23    1
     3    23    22    1
     4    22     1    1
     5     1     2    1
     6     2     3    1
     7     3     4    1
     8     4     5    1
     9     5     6    1
    10     4     7    1
    11     7     8    1
    12     8    20    1
    13    20    21    1
    14     8     9    1
    15     9    10   ar
    16    10    11   ar
    17    11    12   ar
    18    12    13   ar
    19    13    14    1
    20    14    15   ar
    21    15    16   ar
    22    16    17   ar
    23    17    18   ar
    24    18    19   ar
    25     6     1    1
    26    13     9   ar
    27    19    14   ar
    28    10     4    1
@<TRIPOS>MOLECULE
*****
 25 28 0 0 0
SMALL
GASTEIGER

@<TRIPOS>ATOM
      1 N         140.1263  141.4971  168.9036 N.3     1  UNL1       -0.2725
      2 C         140.4723  142.7373  168.1341 C.3     1  UNL1        0.0749
      3 C         140.3832  142.7401  166.6367 C.3     1  UNL1        0.0490
      4 C         139.9483  141.5028  165.9089 C.3     1  UNL1        0.1196
      5 C         139.6023  140.2626  166.6784 C.3     1  UNL1        0.0490
      6 C         139.6913  140.2598  168.1757 C.3     1  UNL1        0.0749
      7 O         140.2607  142.6617  165.0093 O.3     1  UNL1       -0.3265
      8 C         140.0368  142.2225  163.5926 C.3     1  UNL1        0.2783
      9 C         139.5859  140.7921  163.6167 C.ar    1  UNL1        0.1162
     10 C         139.5312  140.3473  165.0482 C.ar    1  UNL1        0.0415
     11 C         139.0803  138.9169  165.0722 C.ar    1  UNL1        0.1198
     12 N         138.8563  138.4775  163.6556 N.ar    1  UNL1       -0.1639
     13 N         139.1688  139.6365  162.7561 N.ar    1  UNL1       -0.2291
     14 C         139.0798  139.6394  161.2587 C.ar    1  UNL1        0.0826
     15 C         138.2236  140.6539  160.5602 C.ar    1  UNL1        0.0191
     16 C         138.1346  140.6568  159.0629 C.ar    1  UNL1        0.0015
     17 C         138.9018  139.6452  158.2640 C.ar    1  UNL1        0.0001
     18 C         139.7580  138.6308  158.9625 C.ar    1  UNL1        0.0015
     19 C         139.8470  138.6279  160.4598 C.ar    1  UNL1        0.0191
     20 O         140.2298  143.0656  162.3671 O.3     1  UNL1       -0.3233
     21 C         140.5958  144.5139  162.5032 C.3     1  UNL1        0.1772
     22 C         140.2153  141.4942  170.4009 C.3     1  UNL1        0.0721
     23 C         141.5556  141.5415  171.0727 C.3     1  UNL1        0.0173
     24 C         143.7249  142.1832  169.7951 C.3     1  UNL1        0.0000
     25 C         142.7872  141.1360  170.3186 C.3     1  UNL1        0.0014
@<TRIPOS>BOND
     1    24    25    1
     2    25    23    1
     3    23    22    1
     4    22     1    1
     5     1     2    1
     6     2     3    1
     7     3     4    1
     8     4     5    1
     9     5     6    1
    10     4     7    1
    11     7     8    1
    12     8    20    1
    13    20    21    1
    14     8     9    1
    15     9    10   ar
    16    10    11   ar
    17    11    12   ar
    18    12    13   ar
    19    13    14    1
    20    14    15   ar
    21    15    16   ar
    22    16    17   ar
    23    17    18   ar
    24    18    19   ar
    25     6     1    1
    26    13     9   ar
    27    19    14   ar
    28    10     4    1
