@<TRIPOS>MOLECULE
*****
 30 34 0 0 0
SMALL
GASTEIGER

@<TRIPOS>ATOM
      1 N         142.8353  142.9951  164.2664 N.pl3   1  UNL1       -0.3133
      2 C         142.6366  142.4806  165.6614 C.2     1  UNL1        0.2770
      3 N         141.5085  141.6085  166.1271 N.2     1  UNL1       -0.2204
      4 C         141.7058  141.3368  167.5891 C.3     1  UNL1        0.1537
      5 C         142.9558  142.0410  168.0268 C.3     1  UNL1        0.2350
      6 O         143.5310  142.7479  166.8355 O.2     1  UNL1       -0.4478
      7 C         140.4834  140.6903  167.0078 C.ar    1  UNL1        0.0355
      8 C         140.1566  140.8738  165.5555 C.ar    1  UNL1        0.0007
      9 C         138.9342  140.2273  164.9742 C.ar    1  UNL1        0.0015
     10 C         138.0387  139.3971  165.8454 C.ar    1  UNL1        0.0031
     11 C         138.3656  139.2136  167.2979 C.ar    1  UNL1        0.0366
     12 C         139.5879  139.8601  167.8790 C.ar    1  UNL1        0.1364
     13 O         139.9149  139.6766  169.3315 O.3     1  UNL1       -0.4756
     14 C         141.1372  140.3231  169.9127 C.3     1  UNL1        0.2074
     15 C         142.0327  141.1532  169.0415 C.3     1  UNL1        0.0666
     16 C         143.2554  142.0058  168.8740 C.3     1  UNL1        0.0061
     17 C         142.9271  141.4206  170.2155 C.3     1  UNL1        0.0061
     18 H         142.1900  142.7637  163.5598 H       1  UNL1        0.1466
     19 H         143.6110  143.5642  164.0575 H       1  UNL1        0.1466
     20 C         138.6073  140.4109  163.5219 C.ar    1  UNL1        0.0222
     21 C         138.1589  139.2389  162.7000 C.ar    1  UNL1        0.0991
     22 N         137.8320  139.4225  161.2477 N.ar    1  UNL1       -0.2391
     23 C         137.9536  140.7781  160.6171 C.ar    1  UNL1        0.1356
     24 C         138.4019  141.9501  161.4389 C.ar    1  UNL1        0.1579
     25 C         138.7288  141.7664  162.8913 C.ar    1  UNL1        0.0401
     26 O         138.5235  143.3056  160.8084 O.3     1  UNL1       -0.4678
     27 C         139.6279  144.2307  161.2260 C.3     1  UNL1        0.2772
     28 C         139.3566  145.3231  162.2176 C.3     1  UNL1        0.3615
     29 F         138.5355  145.0392  163.4403 F       1  UNL1       -0.1942
     30 F         139.9065  146.6994  161.9864 F       1  UNL1       -0.1942
@<TRIPOS>BOND
     1     1     2    1
     2     2     3    2
     3     3     4    1
     4     4     5    1
     5     5     6    1
     6     4     7    1
     7     7     8   ar
     8     8     9   ar
     9     9    20    1
    10    20    21   ar
    11    21    22   ar
    12    22    23   ar
    13    23    24   ar
    14    24    26    1
    15    26    27    1
    16    27    28    1
    17    28    29    1
    18    28    30    1
    19    24    25   ar
    20     9    10   ar
    21    10    11   ar
    22    11    12   ar
    23    12    13    1
    24    13    14    1
    25    14    15    1
    26    15    16    1
    27    16    17    1
    28     6     2    1
    29    12     7   ar
    30    17    15    1
    31    15     4    1
    32    25    20   ar
    33     1    18    1
    34     1    19    1
@<TRIPOS>MOLECULE
*****
 30 34 0 0 0
SMALL
GASTEIGER

@<TRIPOS>ATOM
      1 N         138.3412  144.3919  164.4682 N.pl3   1  UNL1       -0.3133
      2 C         138.3830  143.4071  163.3374 C.2     1  UNL1        0.2770
      3 N         138.6651  141.9388  163.4571 N.2     1  UNL1       -0.2204
      4 C         138.6065  141.3420  162.0821 C.3     1  UNL1        0.1537
      5 C         138.2882  142.4416  161.1128 C.3     1  UNL1        0.2350
      6 O         138.1501  143.7178  161.8886 O.2     1  UNL1       -0.4478
      7 C         138.9187  140.3514  163.1644 C.ar    1  UNL1        0.0355
      8 C         139.0099  140.8038  164.5916 C.ar    1  UNL1        0.0007
      9 C         139.3221  139.8131  165.6739 C.ar    1  UNL1        0.0015
     10 C         139.5430  138.3702  165.3289 C.ar    1  UNL1        0.0031
     11 C         139.4517  137.9178  163.9016 C.ar    1  UNL1        0.0366
     12 C         139.1396  138.9084  162.8194 C.ar    1  UNL1        0.1364
     13 O         139.0483  138.4561  161.3921 O.3     1  UNL1       -0.4756
     14 C         138.7361  139.4467  160.3099 C.3     1  UNL1        0.2074
     15 C         138.5152  140.8897  160.6549 C.3     1  UNL1        0.0666
     16 C         138.2074  142.2947  160.2293 C.3     1  UNL1        0.0061
     17 C         138.2823  141.2004  159.2060 C.3     1  UNL1        0.0061
     18 H         138.5084  144.0900  165.3903 H       1  UNL1        0.1466
     19 H         138.1465  145.3400  164.2883 H       1  UNL1        0.1466
     20 C         139.4134  140.2655  167.1011 C.ar    1  UNL1        0.0222
     21 C         138.7004  139.5014  168.1771 C.ar    1  UNL1        0.0991
     22 N         138.7917  139.9537  169.6043 N.ar    1  UNL1       -0.2391
     23 C         139.5960  141.1703  169.9556 C.ar    1  UNL1        0.1356
     24 C         140.3089  141.9344  168.8796 C.ar    1  UNL1        0.1579
     25 C         140.2176  141.4820  167.4523 C.ar    1  UNL1        0.0401
     26 O         141.1132  143.1508  169.2308 O.3     1  UNL1       -0.4678
     27 C         142.3311  143.0204  170.0965 C.3     1  UNL1        0.2772
     28 C         143.4632  142.1337  169.6698 C.3     1  UNL1        0.3615
     29 F         144.8774  142.5147  169.9935 F       1  UNL1       -0.1942
     30 F         143.1811  140.8659  168.9194 F       1  UNL1       -0.1942
@<TRIPOS>BOND
     1     1     2    1
     2     2     3    2
     3     3     4    1
     4     4     5    1
     5     5     6    1
     6     4     7    1
     7     7     8   ar
     8     8     9   ar
     9     9    20    1
    10    20    21   ar
    11    21    22   ar
    12    22    23   ar
    13    23    24   ar
    14    24    26    1
    15    26    27    1
    16    27    28    1
    17    28    29    1
    18    28    30    1
    19    24    25   ar
    20     9    10   ar
    21    10    11   ar
    22    11    12   ar
    23    12    13    1
    24    13    14    1
    25    14    15    1
    26    15    16    1
    27    16    17    1
    28     6     2    1
    29    12     7   ar
    30    17    15    1
    31    15     4    1
    32    25    20   ar
    33     1    18    1
    34     1    19    1
@<TRIPOS>MOLECULE
*****
 30 34 0 0 0
SMALL
GASTEIGER

@<TRIPOS>ATOM
      1 N         143.4328  141.7450  164.7992 N.pl3   1  UNL1       -0.3133
      2 C         142.7886  141.6939  166.1529 C.2     1  UNL1        0.2770
      3 N         141.5274  140.9610  166.5020 N.2     1  UNL1       -0.2204
      4 C         141.2519  141.1809  167.9600 C.3     1  UNL1        0.1537
      5 C         142.3429  142.0499  168.5119 C.3     1  UNL1        0.2350
      6 O         143.2926  142.3669  167.3951 O.2     1  UNL1       -0.4478
      7 C         140.2341  140.3221  167.2696 C.ar    1  UNL1        0.0355
      8 C         140.3788  140.0153  165.8085 C.ar    1  UNL1        0.0007
      9 C         139.3611  139.1565  165.1180 C.ar    1  UNL1        0.0015
     10 C         138.1987  138.6045  165.8887 C.ar    1  UNL1        0.0031
     11 C         138.0540  138.9113  167.3499 C.ar    1  UNL1        0.0366
     12 C         139.0717  139.7701  168.0403 C.ar    1  UNL1        0.1364
     13 O         138.9270  140.0769  169.5015 O.3     1  UNL1       -0.4756
     14 C         139.9447  140.9357  170.1919 C.3     1  UNL1        0.2074
     15 C         141.1072  141.4877  169.4211 C.3     1  UNL1        0.0666
     16 C         142.3659  142.3023  169.3748 C.3     1  UNL1        0.0061
     17 C         141.6112  142.1607  170.6633 C.3     1  UNL1        0.0061
     18 H         143.0241  141.2678  164.0412 H       1  UNL1        0.1466
     19 H         144.2643  142.2556  164.6687 H       1  UNL1        0.1466
     20 C         139.5058  138.8497  163.6569 C.ar    1  UNL1        0.0222
     21 C         138.3223  138.9736  162.7437 C.ar    1  UNL1        0.0991
     22 N         138.4670  138.6669  161.2826 N.ar    1  UNL1       -0.2391
     23 C         139.7953  138.2361  160.7346 C.ar    1  UNL1        0.1356
     24 C         140.9788  138.1122  161.6478 C.ar    1  UNL1        0.1579
     25 C         140.8340  138.4190  163.1090 C.ar    1  UNL1        0.0401
     26 O         142.3070  137.6815  161.0999 O.3     1  UNL1       -0.4678
     27 C         143.3570  138.7060  160.7868 C.3     1  UNL1        0.2772
     28 C         144.1020  139.3808  161.9003 C.3     1  UNL1        0.3615
     29 F         144.1907  138.7273  163.2475 F       1  UNL1       -0.1942
     30 F         144.7584  140.7091  161.6664 F       1  UNL1       -0.1942
@<TRIPOS>BOND
     1     1     2    1
     2     2     3    2
     3     3     4    1
     4     4     5    1
     5     5     6    1
     6     4     7    1
     7     7     8   ar
     8     8     9   ar
     9     9    20    1
    10    20    21   ar
    11    21    22   ar
    12    22    23   ar
    13    23    24   ar
    14    24    26    1
    15    26    27    1
    16    27    28    1
    17    28    29    1
    18    28    30    1
    19    24    25   ar
    20     9    10   ar
    21    10    11   ar
    22    11    12   ar
    23    12    13    1
    24    13    14    1
    25    14    15    1
    26    15    16    1
    27    16    17    1
    28     6     2    1
    29    12     7   ar
    30    17    15    1
    31    15     4    1
    32    25    20   ar
    33     1    18    1
    34     1    19    1
@<TRIPOS>MOLECULE
*****
 30 34 0 0 0
SMALL
GASTEIGER

@<TRIPOS>ATOM
      1 N         145.0435  139.4885  163.5775 N.pl3   1  UNL1       -0.3133
      2 C         143.9955  139.2526  162.5305 C.2     1  UNL1        0.2770
      3 N         142.5186  139.1457  162.7698 N.2     1  UNL1       -0.2204
      4 C         141.8508  138.9092  161.4475 C.3     1  UNL1        0.1537
      5 C         142.9151  138.8700  160.3912 C.3     1  UNL1        0.2350
      6 O         144.2405  139.0822  161.0605 O.2     1  UNL1       -0.4478
      7 C         140.9020  138.9728  162.6076 C.ar    1  UNL1        0.0355
      8 C         141.4264  139.2043  163.9937 C.ar    1  UNL1        0.0007
      9 C         140.4776  139.2679  165.1537 C.ar    1  UNL1        0.0015
     10 C         139.0042  139.1001  164.9276 C.ar    1  UNL1        0.0031
     11 C         138.4798  138.8687  163.5414 C.ar    1  UNL1        0.0366
     12 C         139.4286  138.8050  162.3815 C.ar    1  UNL1        0.1364
     13 O         138.9042  138.5736  160.9953 O.3     1  UNL1       -0.4756
     14 C         139.8530  138.5099  159.8353 C.3     1  UNL1        0.2074
     15 C         141.3264  138.6777  160.0614 C.3     1  UNL1        0.0666
     16 C         142.7248  138.7379  159.5223 C.3     1  UNL1        0.0061
     17 C         141.5714  138.5074  158.5914 C.3     1  UNL1        0.0061
     18 H         144.7825  139.5882  164.5216 H       1  UNL1        0.1466
     19 H         145.9923  139.5436  163.3207 H       1  UNL1        0.1466
     20 C         141.0020  139.4994  166.5398 C.ar    1  UNL1        0.0222
     21 C         142.4306  139.1775  166.8647 C.ar    1  UNL1        0.0991
     22 N         142.9551  139.4089  168.2508 N.ar    1  UNL1       -0.2391
     23 C         142.0510  139.9623  169.3121 C.ar    1  UNL1        0.1356
     24 C         140.6224  140.2842  168.9873 C.ar    1  UNL1        0.1579
     25 C         140.0979  140.0527  167.6011 C.ar    1  UNL1        0.0401
     26 O         139.7182  140.8375  170.0486 O.3     1  UNL1       -0.4678
     27 C         139.7337  142.3054  170.3563 C.3     1  UNL1        0.2772
     28 C         140.5650  143.2373  169.5253 C.3     1  UNL1        0.3615
     29 F         141.8516  143.7828  170.0703 F       1  UNL1       -0.1942
     30 F         140.1097  143.6236  168.1493 F       1  UNL1       -0.1942
@<TRIPOS>BOND
     1     1     2    1
     2     2     3    2
     3     3     4    1
     4     4     5    1
     5     5     6    1
     6     4     7    1
     7     7     8   ar
     8     8     9   ar
     9     9    20    1
    10    20    21   ar
    11    21    22   ar
    12    22    23   ar
    13    23    24   ar
    14    24    26    1
    15    26    27    1
    16    27    28    1
    17    28    29    1
    18    28    30    1
    19    24    25   ar
    20     9    10   ar
    21    10    11   ar
    22    11    12   ar
    23    12    13    1
    24    13    14    1
    25    14    15    1
    26    15    16    1
    27    16    17    1
    28     6     2    1
    29    12     7   ar
    30    17    15    1
    31    15     4    1
    32    25    20   ar
    33     1    18    1
    34     1    19    1
@<TRIPOS>MOLECULE
*****
 30 34 0 0 0
SMALL
GASTEIGER

@<TRIPOS>ATOM
      1 N         143.4203  141.7037  164.6506 N.pl3   1  UNL1       -0.3133
      2 C         142.8631  141.7367  166.0429 C.2     1  UNL1        0.2770
      3 N         141.6099  141.0557  166.5074 N.2     1  UNL1       -0.2204
      4 C         141.4336  141.3547  167.9667 C.3     1  UNL1        0.1537
      5 C         142.5778  142.2204  168.4041 C.3     1  UNL1        0.2350
      6 O         143.4612  142.4566  167.2151 O.2     1  UNL1       -0.4478
      7 C         140.3539  140.4901  167.3862 C.ar    1  UNL1        0.0355
      8 C         140.3975  140.1079  165.9364 C.ar    1  UNL1        0.0007
      9 C         139.3178  139.2433  165.3559 C.ar    1  UNL1        0.0015
     10 C         138.1946  138.7612  166.2253 C.ar    1  UNL1        0.0031
     11 C         138.1510  139.1435  167.6751 C.ar    1  UNL1        0.0366
     12 C         139.2306  140.0080  168.2556 C.ar    1  UNL1        0.1364
     13 O         139.1871  140.3903  169.7054 O.3     1  UNL1       -0.4756
     14 C         140.2667  141.2548  170.2859 C.3     1  UNL1        0.2074
     15 C         141.3900  141.7370  169.4165 C.3     1  UNL1        0.0666
     16 C         142.6619  142.5144  169.2498 C.3     1  UNL1        0.0061
     17 C         141.9882  142.4568  170.5887 C.3     1  UNL1        0.0061
     18 H         142.9528  141.2008  163.9451 H       1  UNL1        0.1466
     19 H         144.2535  142.1850  164.4423 H       1  UNL1        0.1466
     20 C         139.3615  138.8610  163.9061 C.ar    1  UNL1        0.0222
     21 C         140.4039  137.9010  163.4147 C.ar    1  UNL1        0.0991
     22 N         140.4476  137.5187  161.9649 N.ar    1  UNL1       -0.2391
     23 C         139.4487  138.0965  161.0065 C.ar    1  UNL1        0.1356
     24 C         138.4062  139.0565  161.4980 C.ar    1  UNL1        0.1579
     25 C         138.3626  139.4388  162.9478 C.ar    1  UNL1        0.0401
     26 O         137.4074  139.6343  160.5396 O.3     1  UNL1       -0.4678
     27 C         137.8770  140.3864  159.3298 C.3     1  UNL1        0.2772
     28 C         138.4908  141.7464  159.4835 C.3     1  UNL1        0.3615
     29 F         138.1164  142.8494  158.5386 F       1  UNL1       -0.1942
     30 F         139.4791  142.0033  160.5823 F       1  UNL1       -0.1942
@<TRIPOS>BOND
     1     1     2    1
     2     2     3    2
     3     3     4    1
     4     4     5    1
     5     5     6    1
     6     4     7    1
     7     7     8   ar
     8     8     9   ar
     9     9    20    1
    10    20    21   ar
    11    21    22   ar
    12    22    23   ar
    13    23    24   ar
    14    24    26    1
    15    26    27    1
    16    27    28    1
    17    28    29    1
    18    28    30    1
    19    24    25   ar
    20     9    10   ar
    21    10    11   ar
    22    11    12   ar
    23    12    13    1
    24    13    14    1
    25    14    15    1
    26    15    16    1
    27    16    17    1
    28     6     2    1
    29    12     7   ar
    30    17    15    1
    31    15     4    1
    32    25    20   ar
    33     1    18    1
    34     1    19    1
@<TRIPOS>MOLECULE
*****
 30 34 0 0 0
SMALL
GASTEIGER

@<TRIPOS>ATOM
      1 N         143.2463  142.8117  165.2480 N.pl3   1  UNL1       -0.3133
      2 C         142.8236  141.8478  164.1792 C.2     1  UNL1        0.2770
      3 N         141.7492  140.8085  164.3041 N.2     1  UNL1       -0.2204
      4 C         141.6627  140.0724  163.0000 C.3     1  UNL1        0.1537
      5 C         142.6836  140.6567  162.0692 C.3     1  UNL1        0.2350
      6 O         143.4011  141.7540  162.7980 O.2     1  UNL1       -0.4478
      7 C         140.6916  139.5920  164.0374 C.ar    1  UNL1        0.0355
      8 C         140.6625  140.2349  165.3923 C.ar    1  UNL1        0.0007
      9 C         139.6914  139.7545  166.4297 C.ar    1  UNL1        0.0015
     10 C         138.7493  138.6312  166.1122 C.ar    1  UNL1        0.0031
     11 C         138.7785  137.9883  164.7572 C.ar    1  UNL1        0.0366
     12 C         139.7496  138.4687  163.7198 C.ar    1  UNL1        0.1364
     13 O         139.7787  137.8258  162.3649 O.3     1  UNL1       -0.4756
     14 C         140.7498  138.3062  161.3275 C.3     1  UNL1        0.2074
     15 C         141.6918  139.4295  161.6451 C.3     1  UNL1        0.0666
     16 C         142.7963  140.3553  161.2295 C.3     1  UNL1        0.0061
     17 C         142.2693  139.3357  160.2639 C.3     1  UNL1        0.0061
     18 H         142.8048  142.7959  166.1278 H       1  UNL1        0.1466
     19 H         143.9653  143.4602  165.0697 H       1  UNL1        0.1466
     20 C         139.6623  140.3974  167.7846 C.ar    1  UNL1        0.0222
     21 C         138.7432  139.8692  168.8459 C.ar    1  UNL1        0.0991
     22 N         138.7141  140.5120  170.2008 N.ar    1  UNL1       -0.2391
     23 C         139.6042  141.6832  170.4945 C.ar    1  UNL1        0.1356
     24 C         140.5233  142.2114  169.4333 C.ar    1  UNL1        0.1579
     25 C         140.5523  141.5685  168.0783 C.ar    1  UNL1        0.0401
     26 O         141.4133  143.3826  169.7269 O.3     1  UNL1       -0.4678
     27 C         142.6889  143.1822  170.4902 C.3     1  UNL1        0.2772
     28 C         143.8306  142.4399  169.8612 C.3     1  UNL1        0.3615
     29 F         143.5594  141.2847  168.9437 F       1  UNL1       -0.1942
     30 F         145.2435  142.8527  170.1499 F       1  UNL1       -0.1942
@<TRIPOS>BOND
     1     1     2    1
     2     2     3    2
     3     3     4    1
     4     4     5    1
     5     5     6    1
     6     4     7    1
     7     7     8   ar
     8     8     9   ar
     9     9    20    1
    10    20    21   ar
    11    21    22   ar
    12    22    23   ar
    13    23    24   ar
    14    24    26    1
    15    26    27    1
    16    27    28    1
    17    28    29    1
    18    28    30    1
    19    24    25   ar
    20     9    10   ar
    21    10    11   ar
    22    11    12   ar
    23    12    13    1
    24    13    14    1
    25    14    15    1
    26    15    16    1
    27    16    17    1
    28     6     2    1
    29    12     7   ar
    30    17    15    1
    31    15     4    1
    32    25    20   ar
    33     1    18    1
    34     1    19    1
@<TRIPOS>MOLECULE
*****
 30 34 0 0 0
SMALL
GASTEIGER

@<TRIPOS>ATOM
      1 N         141.3960  143.8588  164.0985 N.pl3   1  UNL1       -0.3133
      2 C         140.6368  143.1077  163.0450 C.2     1  UNL1        0.2770
      3 N         140.1737  141.6842  163.1384 N.2     1  UNL1       -0.2204
      4 C         139.4581  141.3451  161.8643 C.3     1  UNL1        0.1537
      5 C         139.4791  142.5592  160.9837 C.3     1  UNL1        0.2350
      6 O         140.2076  143.6486  161.7134 O.2     1  UNL1       -0.4478
      7 C         139.5166  140.2161  162.8503 C.ar    1  UNL1        0.0355
      8 C         140.2016  140.4084  164.1708 C.ar    1  UNL1        0.0007
      9 C         140.2601  139.2794  165.1568 C.ar    1  UNL1        0.0015
     10 C         139.6336  137.9582  164.8221 C.ar    1  UNL1        0.0031
     11 C         138.9486  137.7660  163.5015 C.ar    1  UNL1        0.0366
     12 C         138.8902  138.8949  162.5156 C.ar    1  UNL1        0.1364
     13 O         138.2052  138.7027  161.1950 O.3     1  UNL1       -0.4756
     14 C         138.1467  139.8317  160.2091 C.3     1  UNL1        0.2074
     15 C         138.7732  141.1528  160.5438 C.3     1  UNL1        0.0666
     16 C         139.1011  142.5674  160.1677 C.3     1  UNL1        0.0061
     17 C         138.3440  141.6937  159.2121 C.3     1  UNL1        0.0061
     18 H         141.6332  143.4152  164.9448 H       1  UNL1        0.1466
     19 H         141.6570  144.7953  163.9436 H       1  UNL1        0.1466
     20 C         140.9450  139.4717  166.4773 C.ar    1  UNL1        0.0222
     21 C         142.3542  138.9943  166.6678 C.ar    1  UNL1        0.0991
     22 N         143.0392  139.1865  167.9883 N.ar    1  UNL1       -0.2391
     23 C         142.3149  139.8562  169.1184 C.ar    1  UNL1        0.1356
     24 C         140.9058  140.3336  168.9279 C.ar    1  UNL1        0.1579
     25 C         140.2208  140.1413  167.6073 C.ar    1  UNL1        0.0401
     26 O         140.1815  141.0033  170.0579 O.3     1  UNL1       -0.4678
     27 C         140.5929  142.3750  170.5042 C.3     1  UNL1        0.2772
     28 C         140.3866  143.5521  169.5975 C.3     1  UNL1        0.3615
     29 F         140.3121  144.9362  170.1706 F       1  UNL1       -0.1942
     30 F         140.2547  143.3448  168.1178 F       1  UNL1       -0.1942
@<TRIPOS>BOND
     1     1     2    1
     2     2     3    2
     3     3     4    1
     4     4     5    1
     5     5     6    1
     6     4     7    1
     7     7     8   ar
     8     8     9   ar
     9     9    20    1
    10    20    21   ar
    11    21    22   ar
    12    22    23   ar
    13    23    24   ar
    14    24    26    1
    15    26    27    1
    16    27    28    1
    17    28    29    1
    18    28    30    1
    19    24    25   ar
    20     9    10   ar
    21    10    11   ar
    22    11    12   ar
    23    12    13    1
    24    13    14    1
    25    14    15    1
    26    15    16    1
    27    16    17    1
    28     6     2    1
    29    12     7   ar
    30    17    15    1
    31    15     4    1
    32    25    20   ar
    33     1    18    1
    34     1    19    1
@<TRIPOS>MOLECULE
*****
 30 34 0 0 0
SMALL
GASTEIGER

@<TRIPOS>ATOM
      1 N         138.3155  139.3422  166.1271 N.pl3   1  UNL1       -0.3133
      2 C         139.2604  139.8461  167.1775 C.2     1  UNL1        0.2770
      3 N         140.4870  140.6748  166.9355 N.2     1  UNL1       -0.2204
      4 C         141.1293  140.9506  168.2628 C.3     1  UNL1        0.1537
      5 C         140.2996  140.2922  169.3249 C.3     1  UNL1        0.2350
      6 O         139.1446  139.6096  168.6542 O.2     1  UNL1       -0.4478
      7 C         141.8556  141.5527  167.0965 C.ar    1  UNL1        0.0355
      8 C         141.3299  141.3601  165.7050 C.ar    1  UNL1        0.0007
      9 C         142.0562  141.9622  164.5388 C.ar    1  UNL1        0.0015
     10 C         143.3083  142.7568  164.7642 C.ar    1  UNL1        0.0031
     11 C         143.8341  142.9493  166.1558 C.ar    1  UNL1        0.0366
     12 C         143.1077  142.3473  167.3220 C.ar    1  UNL1        0.1364
     13 O         143.6335  142.5398  168.7136 O.3     1  UNL1       -0.4756
     14 C         142.9072  141.9377  169.8797 C.3     1  UNL1        0.2074
     15 C         141.6550  141.1431  169.6543 C.3     1  UNL1        0.0666
     16 C         140.5128  140.3368  170.1974 C.3     1  UNL1        0.0061
     17 C         141.5392  140.9067  171.1310 C.3     1  UNL1        0.0061
     18 H         138.4769  139.5510  165.1787 H       1  UNL1        0.1466
     19 H         137.5338  138.8026  166.3862 H       1  UNL1        0.1466
     20 C         141.5305  141.7697  163.1472 C.ar    1  UNL1        0.0222
     21 C         141.1290  142.9589  162.3259 C.ar    1  UNL1        0.0991
     22 N         140.6032  142.7664  160.9343 N.ar    1  UNL1       -0.2391
     23 C         140.4789  141.3845  160.3641 C.ar    1  UNL1        0.1356
     24 C         140.8803  140.1953  161.1854 C.ar    1  UNL1        0.1579
     25 C         141.4061  140.3879  162.5770 C.ar    1  UNL1        0.0401
     26 O         140.7560  138.8135  160.6152 O.3     1  UNL1       -0.4678
     27 C         139.4100  138.1576  160.5253 C.3     1  UNL1        0.2772
     28 C         138.5314  138.0791  161.7386 C.3     1  UNL1        0.3615
     29 F         139.1231  137.7286  163.0716 F       1  UNL1       -0.1942
     30 F         137.0612  138.3511  161.6187 F       1  UNL1       -0.1942
@<TRIPOS>BOND
     1     1     2    1
     2     2     3    2
     3     3     4    1
     4     4     5    1
     5     5     6    1
     6     4     7    1
     7     7     8   ar
     8     8     9   ar
     9     9    20    1
    10    20    21   ar
    11    21    22   ar
    12    22    23   ar
    13    23    24   ar
    14    24    26    1
    15    26    27    1
    16    27    28    1
    17    28    29    1
    18    28    30    1
    19    24    25   ar
    20     9    10   ar
    21    10    11   ar
    22    11    12   ar
    23    12    13    1
    24    13    14    1
    25    14    15    1
    26    15    16    1
    27    16    17    1
    28     6     2    1
    29    12     7   ar
    30    17    15    1
    31    15     4    1
    32    25    20   ar
    33     1    18    1
    34     1    19    1
@<TRIPOS>MOLECULE
*****
 30 34 0 0 0
SMALL
GASTEIGER

@<TRIPOS>ATOM
      1 N         138.5926  144.5727  165.5243 N.pl3   1  UNL1       -0.3133
      2 C         139.3745  144.5722  164.2441 C.2     1  UNL1        0.2770
      3 N         140.6892  143.8876  164.0143 N.2     1  UNL1       -0.2204
      4 C         141.1061  144.1485  162.5972 C.3     1  UNL1        0.1537
      5 C         140.0491  144.9943  161.9513 C.3     1  UNL1        0.2350
      6 O         138.9789  145.2562  162.9691 O.2     1  UNL1       -0.4478
      7 C         142.0757  143.3073  163.3735 C.ar    1  UNL1        0.0355
      8 C         141.7914  142.9638  164.8056 C.ar    1  UNL1        0.0007
      9 C         142.7609  142.1226  165.5819 C.ar    1  UNL1        0.0015
     10 C         144.0147  141.6250  164.9259 C.ar    1  UNL1        0.0031
     11 C         144.2990  141.9686  163.4937 C.ar    1  UNL1        0.0366
     12 C         143.3295  142.8097  162.7175 C.ar    1  UNL1        0.1364
     13 O         143.6138  143.1533  161.2853 O.3     1  UNL1       -0.4756
     14 C         142.6443  143.9944  160.5091 C.3     1  UNL1        0.2074
     15 C         141.3905  144.4920  161.1650 C.3     1  UNL1        0.0666
     16 C         140.1068  145.2649  161.0956 C.3     1  UNL1        0.0061
     17 C         140.9949  145.1760  159.8900 C.3     1  UNL1        0.0061
     18 H         138.9369  144.0921  166.3115 H       1  UNL1        0.1466
     19 H         137.7352  145.0537  165.5772 H       1  UNL1        0.1466
     20 C         142.4766  141.7791  167.0140 C.ar    1  UNL1        0.0222
     21 C         143.3484  142.3280  168.1043 C.ar    1  UNL1        0.0991
     22 N         143.0640  141.9844  169.5364 N.ar    1  UNL1       -0.2391
     23 C         141.9079  141.0920  169.8784 C.ar    1  UNL1        0.1356
     24 C         141.0361  140.5431  168.7881 C.ar    1  UNL1        0.1579
     25 C         141.3204  140.8867  167.3559 C.ar    1  UNL1        0.0401
     26 O         139.8799  139.6507  169.1300 O.3     1  UNL1       -0.4678
     27 C         138.5684  139.8178  168.4215 C.3     1  UNL1        0.2772
     28 C         138.1782  138.8646  167.3310 C.3     1  UNL1        0.3615
     29 F         139.0415  138.7252  166.1123 F       1  UNL1       -0.1942
     30 F         136.9247  138.0508  167.4592 F       1  UNL1       -0.1942
@<TRIPOS>BOND
     1     1     2    1
     2     2     3    2
     3     3     4    1
     4     4     5    1
     5     5     6    1
     6     4     7    1
     7     7     8   ar
     8     8     9   ar
     9     9    20    1
    10    20    21   ar
    11    21    22   ar
    12    22    23   ar
    13    23    24   ar
    14    24    26    1
    15    26    27    1
    16    27    28    1
    17    28    29    1
    18    28    30    1
    19    24    25   ar
    20     9    10   ar
    21    10    11   ar
    22    11    12   ar
    23    12    13    1
    24    13    14    1
    25    14    15    1
    26    15    16    1
    27    16    17    1
    28     6     2    1
    29    12     7   ar
    30    17    15    1
    31    15     4    1
    32    25    20   ar
    33     1    18    1
    34     1    19    1
