@<TRIPOS>MOLECULE
*****
 31 34 0 0 0
SMALL
GASTEIGER

@<TRIPOS>ATOM
      1 C         138.0916  140.3505  162.5985 C.3     1  UNL1        0.1166
      2 N         136.8681  141.1383  162.9624 N.3     1  UNL1       -0.3162
      3 C         139.3518  139.5519  162.7541 C.3     1  UNL1        0.0739
      4 C         140.0814  139.0580  161.5402 C.3     1  UNL1        0.2039
      5 N         139.5507  139.3625  160.1706 N.pl3   1  UNL1       -0.1931
      6 C         138.2905  140.1610  160.0149 C.3     1  UNL1        0.2039
      7 C         137.5610  140.6550  161.2290 C.3     1  UNL1        0.0739
      8 H         136.7979  141.2076  163.9776 H       1  UNL1        0.1192
      9 H         136.0401  140.6690  162.5956 H       1  UNL1        0.1192
     10 C         140.2803  138.8684  158.9566 C.2     1  UNL1        0.3205
     11 N         139.5998  137.9333  158.0015 N.2     1  UNL1        0.0097
     12 C         140.3293  137.4393  156.7876 C.2     1  UNL1        0.4717
     13 N         141.7395  137.8804  156.5288 N.2     1  UNL1        0.0158
     14 C         142.4200  138.8155  157.4839 C.2     1  UNL1        0.3714
     15 N         143.7935  139.4185  157.4911 N.2     1  UNL1       -0.0339
     16 C         143.9127  140.2853  158.7096 C.2     1  UNL1        0.2323
     17 C         142.6130  140.2179  159.4554 C.2     1  UNL1        0.0486
     18 C         141.6904  139.3096  158.6979 C.3     1  UNL1        0.2428
     19 N         138.5027  139.0305  164.7981 N.am    1  UNL1       -0.3012
     20 C         138.1974  140.3195  164.0944 C.2     1  UNL1        0.2352
     21 O         137.9979  141.5775  164.8867 O.2     1  UNL1       -0.2737
     22 H         138.6336  138.2048  164.2781 H       1  UNL1        0.1497
     23 C         137.5146  138.3775  167.1106 C.3     1  UNL1        0.0262
     24 C         138.6085  138.9994  166.2941 C.3     1  UNL1        0.0942
     25 C         139.8081  139.5903  166.9735 C.ar    1  UNL1       -0.0044
     26 C         141.1482  139.5469  166.3009 C.ar    1  UNL1       -0.0004
     27 C         142.3479  140.1378  166.9803 C.ar    1  UNL1        0.0294
     28 C         142.2074  140.7721  168.3324 C.ar    1  UNL1        0.1401
     29 F         143.4072  141.3631  169.0118 F       1  UNL1       -0.2042
     30 C         140.8674  140.8156  169.0050 C.ar    1  UNL1        0.0294
     31 C         139.6677  140.2246  168.3255 C.ar    1  UNL1       -0.0004
@<TRIPOS>BOND
     1    23    24    1
     2    24    19    1
     3    19    20   am
     4    20    21    2
     5    20     1    1
     6     1     2    1
     7     1     3    1
     8     3     4    1
     9     4     5    1
    10     5    10    1
    11    10    11    2
    12    11    12    1
    13    12    13    2
    14    13    14    1
    15    14    15    2
    16    15    16    1
    17    16    17    2
    18    17    18    1
    19     5     6    1
    20     6     7    1
    21    24    25    1
    22    25    26   ar
    23    26    27   ar
    24    27    28   ar
    25    28    29    1
    26    28    30   ar
    27    30    31   ar
    28     7     1    1
    29    31    25   ar
    30    18    10    1
    31    18    14    1
    32    19    22    1
    33     2     8    1
    34     2     9    1
@<TRIPOS>MOLECULE
*****
 31 34 0 0 0
SMALL
GASTEIGER

@<TRIPOS>ATOM
      1 C         140.4906  144.2728  163.4755 C.3     1  UNL1        0.1166
      2 N         139.9234  144.9861  164.6669 N.3     1  UNL1       -0.3162
      3 C         141.1792  143.2193  162.6593 C.3     1  UNL1        0.0739
      4 C         141.3212  143.3932  161.1763 C.3     1  UNL1        0.2039
      5 N         140.7747  144.6206  160.5093 N.pl3   1  UNL1       -0.1931
      6 C         140.0861  145.6741  161.3253 C.3     1  UNL1        0.2039
      7 C         139.9441  145.5002  162.8085 C.3     1  UNL1        0.0739
      8 H         140.0865  144.4293  165.5059 H       1  UNL1        0.1192
      9 H         138.9206  145.1200  164.5374 H       1  UNL1        0.1192
     10 C         140.9167  144.7945  159.0261 C.2     1  UNL1        0.3205
     11 N         141.9505  145.7322  158.4766 N.2     1  UNL1        0.0097
     12 C         142.0926  145.9061  156.9935 C.2     1  UNL1        0.4717
     13 N         141.2009  145.1422  156.0599 N.2     1  UNL1        0.0158
     14 C         140.1671  144.2045  156.6095 C.2     1  UNL1        0.3714
     15 N         139.1538  143.3240  155.9404 N.2     1  UNL1       -0.0339
     16 C         138.3855  142.6059  157.0099 C.2     1  UNL1        0.2323
     17 C         138.9239  143.0426  158.3401 C.2     1  UNL1        0.0486
     18 C         140.0251  144.0307  158.0926 C.3     1  UNL1        0.2428
     19 N         139.7740  142.7840  165.4804 N.am    1  UNL1       -0.3012
     20 C         140.8401  143.2931  164.5562 C.2     1  UNL1        0.2352
     21 O         142.2558  142.8225  164.7127 O.2     1  UNL1       -0.2737
     22 H         138.8448  143.0929  165.3776 H       1  UNL1        0.1497
     23 C         139.6679  140.3789  166.4573 C.3     1  UNL1        0.0262
     24 C         140.1235  141.8043  166.5612 C.3     1  UNL1        0.0942
     25 C         140.9285  142.2500  167.7457 C.ar    1  UNL1       -0.0044
     26 C         142.3381  141.7671  167.9191 C.ar    1  UNL1       -0.0004
     27 C         143.1432  142.2128  169.1037 C.ar    1  UNL1        0.0294
     28 C         142.5387  143.1413  170.1149 C.ar    1  UNL1        0.1401
     29 F         143.3438  143.5869  171.2995 F       1  UNL1       -0.2042
     30 C         141.1292  143.6241  169.9416 C.ar    1  UNL1        0.0294
     31 C         140.3240  143.1784  168.7569 C.ar    1  UNL1       -0.0004
@<TRIPOS>BOND
     1    23    24    1
     2    24    19    1
     3    19    20   am
     4    20    21    2
     5    20     1    1
     6     1     2    1
     7     1     3    1
     8     3     4    1
     9     4     5    1
    10     5    10    1
    11    10    11    2
    12    11    12    1
    13    12    13    2
    14    13    14    1
    15    14    15    2
    16    15    16    1
    17    16    17    2
    18    17    18    1
    19     5     6    1
    20     6     7    1
    21    24    25    1
    22    25    26   ar
    23    26    27   ar
    24    27    28   ar
    25    28    29    1
    26    28    30   ar
    27    30    31   ar
    28     7     1    1
    29    31    25   ar
    30    18    10    1
    31    18    14    1
    32    19    22    1
    33     2     8    1
    34     2     9    1
@<TRIPOS>MOLECULE
*****
 31 34 0 0 0
SMALL
GASTEIGER

@<TRIPOS>ATOM
      1 C         142.9624  143.6898  164.2294 C.3     1  UNL1        0.1166
      2 N         144.1035  144.3380  163.5031 N.3     1  UNL1       -0.3162
      3 C         141.5726  143.2129  164.5313 C.3     1  UNL1        0.0739
      4 C         141.2950  142.4679  165.8031 C.3     1  UNL1        0.2039
      5 N         142.4072  142.1996  166.7733 N.pl3   1  UNL1       -0.1931
      6 C         143.7970  142.6764  166.4715 C.3     1  UNL1        0.2039
      7 C         144.0746  143.4215  165.1995 C.3     1  UNL1        0.0739
      8 H         143.7672  144.7328  162.6249 H       1  UNL1        0.1192
      9 H         144.8228  143.6412  163.3093 H       1  UNL1        0.1192
     10 C         142.1296  141.4544  168.0452 C.2     1  UNL1        0.3205
     11 N         142.6810  140.0733  168.2409 N.2     1  UNL1        0.0097
     12 C         142.4034  139.3282  169.5127 C.2     1  UNL1        0.4717
     13 N         141.5743  139.9642  170.5890 N.2     1  UNL1        0.0158
     14 C         141.0229  141.3453  170.3932 C.2     1  UNL1        0.3714
     15 N         140.1791  142.2226  171.2697 N.2     1  UNL1       -0.0339
     16 C         139.9352  143.5100  170.5395 C.2     1  UNL1        0.2323
     17 C         140.6283  143.4283  169.2118 C.2     1  UNL1        0.0486
     18 C         141.3006  142.0904  169.1213 C.3     1  UNL1        0.2428
     19 N         140.7541  144.3337  163.0217 N.am    1  UNL1       -0.3012
     20 C         142.2465  144.1832  163.0071 C.2     1  UNL1        0.2352
     21 O         143.0228  144.5261  161.7703 O.2     1  UNL1       -0.2737
     22 H         140.2446  144.1086  163.8335 H       1  UNL1        0.1497
     23 C         139.7396  146.2888  161.6439 C.3     1  UNL1        0.0262
     24 C         140.0381  144.8270  161.7995 C.3     1  UNL1        0.0942
     25 C         139.6205  143.8587  160.7328 C.ar    1  UNL1       -0.0044
     26 C         139.9297  144.1486  159.2939 C.ar    1  UNL1       -0.0004
     27 C         139.5122  143.1802  158.2272 C.ar    1  UNL1        0.0294
     28 C         138.7854  141.9219  158.5994 C.ar    1  UNL1        0.1401
     29 F         138.3678  140.9535  157.5326 F       1  UNL1       -0.2042
     30 C         138.4762  141.6319  160.0382 C.ar    1  UNL1        0.0294
     31 C         138.8938  142.6004  161.1050 C.ar    1  UNL1       -0.0004
@<TRIPOS>BOND
     1    23    24    1
     2    24    19    1
     3    19    20   am
     4    20    21    2
     5    20     1    1
     6     1     2    1
     7     1     3    1
     8     3     4    1
     9     4     5    1
    10     5    10    1
    11    10    11    2
    12    11    12    1
    13    12    13    2
    14    13    14    1
    15    14    15    2
    16    15    16    1
    17    16    17    2
    18    17    18    1
    19     5     6    1
    20     6     7    1
    21    24    25    1
    22    25    26   ar
    23    26    27   ar
    24    27    28   ar
    25    28    29    1
    26    28    30   ar
    27    30    31   ar
    28     7     1    1
    29    31    25   ar
    30    18    10    1
    31    18    14    1
    32    19    22    1
    33     2     8    1
    34     2     9    1
@<TRIPOS>MOLECULE
*****
 31 34 0 0 0
SMALL
GASTEIGER

@<TRIPOS>ATOM
      1 C         141.7116  144.8181  162.6021 C.3     1  UNL1        0.1166
      2 N         141.3831  145.4265  163.9331 N.3     1  UNL1       -0.3162
      3 C         142.3950  143.9718  161.5691 C.3     1  UNL1        0.0739
      4 C         141.9427  144.0217  160.1399 C.3     1  UNL1        0.2039
      5 N         140.8070  144.9179  159.7434 N.pl3   1  UNL1       -0.1931
      6 C         140.1236  145.7642  160.7763 C.3     1  UNL1        0.2039
      7 C         140.5760  145.7143  162.2056 C.3     1  UNL1        0.0739
      8 H         142.0107  145.0497  164.6434 H       1  UNL1        0.1192
      9 H         140.4185  145.2046  164.1796 H       1  UNL1        0.1192
     10 C         140.3547  144.9678  158.3141 C.2     1  UNL1        0.3205
     11 N         140.8396  146.0637  157.4118 N.2     1  UNL1        0.0097
     12 C         140.3873  146.1136  155.9826 C.2     1  UNL1        0.4717
     13 N         139.4501  145.0676  155.4554 N.2     1  UNL1        0.0158
     14 C         138.9653  143.9718  156.3577 C.2     1  UNL1        0.3714
     15 N         138.0447  142.8112  156.1219 N.2     1  UNL1       -0.0339
     16 C         137.9280  142.0441  157.4056 C.2     1  UNL1        0.2323
     17 C         138.7765  142.7305  158.4347 C.2     1  UNL1        0.0486
     18 C         139.4176  143.9219  157.7870 C.3     1  UNL1        0.2428
     19 N         142.8448  142.6374  163.4448 N.am    1  UNL1       -0.3012
     20 C         142.7332  144.1331  163.4607 C.2     1  UNL1        0.2352
     21 O         143.6430  144.9439  164.3352 O.2     1  UNL1       -0.2737
     22 H         142.2476  142.1053  162.8708 H       1  UNL1        0.1497
     23 C         145.3151  141.9848  163.9159 C.3     1  UNL1        0.0262
     24 C         143.8663  141.9523  164.3034 C.3     1  UNL1        0.0942
     25 C         143.4391  141.2349  165.5495 C.ar    1  UNL1       -0.0044
     26 C         143.3851  139.7360  165.5708 C.ar    1  UNL1       -0.0004
     27 C         142.9580  139.0186  166.8169 C.ar    1  UNL1        0.0294
     28 C         142.5848  139.8001  168.0417 C.ar    1  UNL1        0.1401
     29 F         142.1576  139.0826  169.2878 F       1  UNL1       -0.2042
     30 C         142.6387  141.2989  168.0204 C.ar    1  UNL1        0.0294
     31 C         143.0660  142.0164  166.7742 C.ar    1  UNL1       -0.0004
@<TRIPOS>BOND
     1    23    24    1
     2    24    19    1
     3    19    20   am
     4    20    21    2
     5    20     1    1
     6     1     2    1
     7     1     3    1
     8     3     4    1
     9     4     5    1
    10     5    10    1
    11    10    11    2
    12    11    12    1
    13    12    13    2
    14    13    14    1
    15    14    15    2
    16    15    16    1
    17    16    17    2
    18    17    18    1
    19     5     6    1
    20     6     7    1
    21    24    25    1
    22    25    26   ar
    23    26    27   ar
    24    27    28   ar
    25    28    29    1
    26    28    30   ar
    27    30    31   ar
    28     7     1    1
    29    31    25   ar
    30    18    10    1
    31    18    14    1
    32    19    22    1
    33     2     8    1
    34     2     9    1
@<TRIPOS>MOLECULE
*****
 31 34 0 0 0
SMALL
GASTEIGER

@<TRIPOS>ATOM
      1 C         140.0235  138.6111  162.4665 C.3     1  UNL1        0.1166
      2 N         138.9349  137.5803  162.5153 N.3     1  UNL1       -0.3162
      3 C         141.0442  139.6065  162.9329 C.3     1  UNL1        0.0739
      4 C         141.8824  140.3459  161.9327 C.3     1  UNL1        0.2039
      5 N         141.7000  140.0900  160.4659 N.pl3   1  UNL1       -0.1931
      6 C         140.6794  139.0946  159.9994 C.3     1  UNL1        0.2039
      7 C         139.8411  138.3552  160.9998 C.3     1  UNL1        0.0739
      8 H         138.6838  137.3967  163.4867 H       1  UNL1        0.1192
      9 H         139.2633  136.7182  162.0802 H       1  UNL1        0.1192
     10 C         142.5383  140.8295  159.4656 C.2     1  UNL1        0.3205
     11 N         143.6014  140.1039  158.6955 N.2     1  UNL1        0.0097
     12 C         144.4397  140.8432  157.6953 C.2     1  UNL1        0.4717
     13 N         144.2148  142.3084  157.4651 N.2     1  UNL1        0.0158
     14 C         143.1517  143.0340  158.2353 C.2     1  UNL1        0.3714
     15 N         142.7035  144.4654  158.2227 N.2     1  UNL1       -0.0339
     16 C         141.5882  144.6106  159.2152 C.2     1  UNL1        0.2323
     17 C         141.3471  143.2690  159.8412 C.2     1  UNL1        0.0486
     18 C         142.3134  142.2946  159.2356 C.3     1  UNL1        0.2428
     19 N         138.8589  139.4206  164.6432 N.am    1  UNL1       -0.3012
     20 C         139.8278  138.5091  163.9501 C.2     1  UNL1        0.2352
     21 O         140.6010  137.4956  164.7407 O.2     1  UNL1       -0.2737
     22 H         138.3515  140.0858  164.1243 H       1  UNL1        0.1497
     23 C         137.8222  138.2159  166.6984 C.3     1  UNL1        0.0262
     24 C         138.6632  139.3187  166.1269 C.3     1  UNL1        0.0942
     25 C         139.3086  140.3194  167.0391 C.ar    1  UNL1       -0.0044
     26 C         139.9625  141.5426  166.4678 C.ar    1  UNL1       -0.0004
     27 C         140.6078  142.5433  167.3799 C.ar    1  UNL1        0.0294
     28 C         140.5993  142.3209  168.8633 C.ar    1  UNL1        0.1401
     29 F         141.2447  143.3217  169.7755 F       1  UNL1       -0.2042
     30 C         139.9454  141.0978  169.4346 C.ar    1  UNL1        0.0294
     31 C         139.3000  140.0970  168.5225 C.ar    1  UNL1       -0.0004
@<TRIPOS>BOND
     1    23    24    1
     2    24    19    1
     3    19    20   am
     4    20    21    2
     5    20     1    1
     6     1     2    1
     7     1     3    1
     8     3     4    1
     9     4     5    1
    10     5    10    1
    11    10    11    2
    12    11    12    1
    13    12    13    2
    14    13    14    1
    15    14    15    2
    16    15    16    1
    17    16    17    2
    18    17    18    1
    19     5     6    1
    20     6     7    1
    21    24    25    1
    22    25    26   ar
    23    26    27   ar
    24    27    28   ar
    25    28    29    1
    26    28    30   ar
    27    30    31   ar
    28     7     1    1
    29    31    25   ar
    30    18    10    1
    31    18    14    1
    32    19    22    1
    33     2     8    1
    34     2     9    1
@<TRIPOS>MOLECULE
*****
 31 34 0 0 0
SMALL
GASTEIGER

@<TRIPOS>ATOM
      1 C         140.1196  144.3688  163.4296 C.3     1  UNL1        0.1166
      2 N         139.4936  145.1139  164.5710 N.3     1  UNL1       -0.3162
      3 C         140.8290  143.2841  162.6743 C.3     1  UNL1        0.0739
      4 C         141.0809  143.4358  161.2035 C.3     1  UNL1        0.2039
      5 N         140.6234  144.6722  160.4878 N.pl3   1  UNL1       -0.1931
      6 C         139.9140  145.7568  161.2430 C.3     1  UNL1        0.2039
      7 C         139.6621  145.6051  162.7139 C.3     1  UNL1        0.0739
      8 H         139.5788  144.5622  165.4247 H       1  UNL1        0.1192
      9 H         138.5074  145.2784  164.3695 H       1  UNL1        0.1192
     10 C         140.8753  144.8238  159.0169 C.2     1  UNL1        0.3205
     11 N         141.9715  145.7260  158.5328 N.2     1  UNL1        0.0097
     12 C         142.2234  145.8777  157.0620 C.2     1  UNL1        0.4717
     13 N         141.3791  145.1272  156.0750 N.2     1  UNL1        0.0158
     14 C         140.2828  144.2250  156.5591 C.2     1  UNL1        0.3714
     15 N         139.2952  143.3644  155.8285 N.2     1  UNL1       -0.0339
     16 C         138.4328  142.6808  156.8479 C.2     1  UNL1        0.2323
     17 C         138.8876  143.1190  158.2085 C.2     1  UNL1        0.0486
     18 C         140.0309  144.0733  158.0300 C.3     1  UNL1        0.2428
     19 N         141.1308  142.1316  164.2793 N.am    1  UNL1       -0.3012
     20 C         140.3597  143.3912  164.5416 C.2     1  UNL1        0.2352
     21 O         139.8289  143.6732  165.9159 O.2     1  UNL1       -0.2737
     22 H         141.4792  141.9465  163.3773 H       1  UNL1        0.1497
     23 C         142.7297  141.0504  166.0185 C.3     1  UNL1        0.0262
     24 C         141.3710  141.1539  165.3913 C.3     1  UNL1        0.0942
     25 C         140.2525  140.2798  165.8761 C.ar    1  UNL1       -0.0044
     26 C         139.7847  140.3799  167.2978 C.ar    1  UNL1       -0.0004
     27 C         138.6662  139.5059  167.7826 C.ar    1  UNL1        0.0294
     28 C         138.0156  138.5317  166.8457 C.ar    1  UNL1        0.1401
     29 F         136.8971  137.6577  167.3306 F       1  UNL1       -0.2042
     30 C         138.4834  138.4316  165.4241 C.ar    1  UNL1        0.0294
     31 C         139.6019  139.3057  164.9393 C.ar    1  UNL1       -0.0004
@<TRIPOS>BOND
     1    23    24    1
     2    24    19    1
     3    19    20   am
     4    20    21    2
     5    20     1    1
     6     1     2    1
     7     1     3    1
     8     3     4    1
     9     4     5    1
    10     5    10    1
    11    10    11    2
    12    11    12    1
    13    12    13    2
    14    13    14    1
    15    14    15    2
    16    15    16    1
    17    16    17    2
    18    17    18    1
    19     5     6    1
    20     6     7    1
    21    24    25    1
    22    25    26   ar
    23    26    27   ar
    24    27    28   ar
    25    28    29    1
    26    28    30   ar
    27    30    31   ar
    28     7     1    1
    29    31    25   ar
    30    18    10    1
    31    18    14    1
    32    19    22    1
    33     2     8    1
    34     2     9    1
@<TRIPOS>MOLECULE
*****
 31 34 0 0 0
SMALL
GASTEIGER

@<TRIPOS>ATOM
      1 C         141.4817  144.5587  161.3533 C.3     1  UNL1        0.1166
      2 N         140.5921  145.7662  161.3698 N.3     1  UNL1       -0.3162
      3 C         142.2718  143.3831  161.8472 C.3     1  UNL1        0.0739
      4 C         143.0395  142.5347  160.8773 C.3     1  UNL1        0.2039
      5 N         143.0172  142.8617  159.4135 N.pl3   1  UNL1       -0.1931
      6 C         142.2271  144.0373  158.9196 C.3     1  UNL1        0.2039
      7 C         141.4594  144.8857  159.8896 C.3     1  UNL1        0.0739
      8 H         140.3044  145.9635  162.3283 H       1  UNL1        0.1192
      9 H         139.7671  145.5886  160.7969 H       1  UNL1        0.1192
     10 C         143.7849  142.0133  158.4436 C.2     1  UNL1        0.3205
     11 N         145.0474  142.5365  157.8253 N.2     1  UNL1        0.0097
     12 C         145.8151  141.6881  156.8555 C.2     1  UNL1        0.4717
     13 N         145.3204  140.3163  156.5039 N.2     1  UNL1        0.0158
     14 C         144.0580  139.7930  157.1222 C.2     1  UNL1        0.3714
     15 N         143.3304  138.4903  156.9690 N.2     1  UNL1       -0.0339
     16 C         142.1129  138.5337  157.8441 C.2     1  UNL1        0.2323
     17 C         142.0881  139.8632  158.5383 C.2     1  UNL1        0.0486
     18 C         143.2902  140.6415  158.0921 C.3     1  UNL1        0.2428
     19 N         140.2010  143.7210  163.4528 N.am    1  UNL1       -0.3012
     20 C         141.1951  144.6509  162.8228 C.2     1  UNL1        0.2352
     21 O         141.9026  145.6731  163.6622 O.2     1  UNL1       -0.2737
     22 H         139.7367  143.0501  162.9018 H       1  UNL1        0.1497
     23 C         138.8059  144.6948  165.4163 C.3     1  UNL1        0.0262
     24 C         139.9144  143.8132  164.9223 C.3     1  UNL1        0.0942
     25 C         140.7362  143.0238  165.8977 C.ar    1  UNL1       -0.0044
     26 C         141.9696  142.3080  165.4325 C.ar    1  UNL1       -0.0004
     27 C         142.7914  141.5186  166.4079 C.ar    1  UNL1        0.0294
     28 C         142.3798  141.4450  167.8485 C.ar    1  UNL1        0.1401
     29 F         143.2018  140.6556  168.8239 F       1  UNL1       -0.2042
     30 C         141.1465  142.1608  168.3137 C.ar    1  UNL1        0.0294
     31 C         140.3246  142.9502  167.3382 C.ar    1  UNL1       -0.0004
@<TRIPOS>BOND
     1    23    24    1
     2    24    19    1
     3    19    20   am
     4    20    21    2
     5    20     1    1
     6     1     2    1
     7     1     3    1
     8     3     4    1
     9     4     5    1
    10     5    10    1
    11    10    11    2
    12    11    12    1
    13    12    13    2
    14    13    14    1
    15    14    15    2
    16    15    16    1
    17    16    17    2
    18    17    18    1
    19     5     6    1
    20     6     7    1
    21    24    25    1
    22    25    26   ar
    23    26    27   ar
    24    27    28   ar
    25    28    29    1
    26    28    30   ar
    27    30    31   ar
    28     7     1    1
    29    31    25   ar
    30    18    10    1
    31    18    14    1
    32    19    22    1
    33     2     8    1
    34     2     9    1
@<TRIPOS>MOLECULE
*****
 31 34 0 0 0
SMALL
GASTEIGER

@<TRIPOS>ATOM
      1 C         139.6575  143.8361  163.6403 C.3     1  UNL1        0.1166
      2 N         139.0726  144.5289  164.8351 N.3     1  UNL1       -0.3162
      3 C         140.2651  142.7568  162.7940 C.3     1  UNL1        0.0739
      4 C         140.6043  143.0306  161.3588 C.3     1  UNL1        0.2039
      5 N         140.3358  144.3838  160.7697 N.pl3   1  UNL1       -0.1931
      6 C         139.7282  145.4631  161.6159 C.3     1  UNL1        0.2039
      7 C         139.3890  145.1891  163.0512 C.3     1  UNL1        0.0739
      8 H         139.0486  143.8834  165.6245 H       1  UNL1        0.1192
      9 H         138.1246  144.8372  164.6191 H       1  UNL1        0.1192
     10 C         140.6750  144.6577  159.3345 C.2     1  UNL1        0.3205
     11 N         141.7937  145.5973  158.9943 N.2     1  UNL1        0.0097
     12 C         142.1329  145.8711  157.5591 C.2     1  UNL1        0.4717
     13 N         141.3534  145.2054  156.4639 N.2     1  UNL1        0.0158
     14 C         140.2347  144.2658  156.8041 C.2     1  UNL1        0.3714
     15 N         139.2973  143.4689  155.9461 N.2     1  UNL1       -0.0339
     16 C         138.3788  142.7026  156.8510 C.2     1  UNL1        0.2323
     17 C         138.7485  143.0258  158.2684 C.2     1  UNL1        0.0486
     18 C         139.8956  143.9919  158.2394 C.3     1  UNL1        0.2428
     19 N         139.3468  141.3280  164.2427 N.am    1  UNL1       -0.3012
     20 C         139.7228  142.7235  164.6442 C.2     1  UNL1        0.2352
     21 O         140.1641  143.0065  166.0496 O.2     1  UNL1       -0.2737
     22 H         139.0571  141.1424  163.3203 H       1  UNL1        0.1497
     23 C         138.1547  139.7130  165.8922 C.3     1  UNL1        0.0262
     24 C         139.4121  140.2154  165.2467 C.3     1  UNL1        0.0942
     25 C         140.7346  139.6053  165.6050 C.ar    1  UNL1       -0.0044
     26 C         141.4511  138.7339  164.6164 C.ar    1  UNL1       -0.0004
     27 C         142.7737  138.1237  164.9748 C.ar    1  UNL1        0.0294
     28 C         143.3798  138.3850  166.3218 C.ar    1  UNL1        0.1401
     29 F         144.7025  137.7748  166.6801 F       1  UNL1       -0.2042
     30 C         142.6634  139.2564  167.3104 C.ar    1  UNL1        0.0294
     31 C         141.3407  139.8666  166.9520 C.ar    1  UNL1       -0.0004
@<TRIPOS>BOND
     1    23    24    1
     2    24    19    1
     3    19    20   am
     4    20    21    2
     5    20     1    1
     6     1     2    1
     7     1     3    1
     8     3     4    1
     9     4     5    1
    10     5    10    1
    11    10    11    2
    12    11    12    1
    13    12    13    2
    14    13    14    1
    15    14    15    2
    16    15    16    1
    17    16    17    2
    18    17    18    1
    19     5     6    1
    20     6     7    1
    21    24    25    1
    22    25    26   ar
    23    26    27   ar
    24    27    28   ar
    25    28    29    1
    26    28    30   ar
    27    30    31   ar
    28     7     1    1
    29    31    25   ar
    30    18    10    1
    31    18    14    1
    32    19    22    1
    33     2     8    1
    34     2     9    1
@<TRIPOS>MOLECULE
*****
 31 34 0 0 0
SMALL
GASTEIGER

@<TRIPOS>ATOM
      1 C         139.5783  144.2846  163.2228 C.3     1  UNL1        0.1166
      2 N         139.3534  145.1258  164.4441 N.3     1  UNL1       -0.3162
      3 C         139.6535  143.0753  162.3383 C.3     1  UNL1        0.0739
      4 C         140.0817  143.2178  160.9079 C.3     1  UNL1        0.2039
      5 N         140.4347  144.5696  160.3617 N.pl3   1  UNL1       -0.1931
      6 C         140.3596  145.7788  161.2461 C.3     1  UNL1        0.2039
      7 C         139.9314  145.6363  162.6766 C.3     1  UNL1        0.0739
      8 H         139.0472  144.5316  165.2145 H       1  UNL1        0.1192
      9 H         138.6369  145.8248  164.2482 H       1  UNL1        0.1192
     10 C         140.8629  144.7121  158.9312 C.2     1  UNL1        0.3205
     11 N         140.1386  145.6604  158.0224 N.2     1  UNL1        0.0097
     12 C         140.5667  145.8028  156.5920 C.2     1  UNL1        0.4717
     13 N         141.7193  144.9970  156.0702 N.2     1  UNL1        0.0158
     14 C         142.4437  144.0487  156.9790 C.2     1  UNL1        0.3714
     15 N         143.6067  143.1295  156.7495 N.2     1  UNL1       -0.0339
     16 C         143.8972  142.4190  158.0381 C.2     1  UNL1        0.2323
     17 C         142.9138  142.8990  159.0641 C.2     1  UNL1        0.0486
     18 C         142.0155  143.9062  158.4095 C.3     1  UNL1        0.2428
     19 N         140.1430  142.2267  164.7046 N.am    1  UNL1       -0.3012
     20 C         139.1472  143.2250  164.1930 C.2     1  UNL1        0.2352
     21 O         137.7203  143.1637  164.6516 O.2     1  UNL1       -0.2737
     22 H         141.0795  142.2670  164.4036 H       1  UNL1        0.1497
     23 C         139.0793  139.9030  165.1728 C.3     1  UNL1        0.0262
     24 C         139.7120  141.1670  165.6749 C.3     1  UNL1        0.0942
     25 C         139.9136  141.3714  167.1471 C.ar    1  UNL1       -0.0044
     26 C         139.5523  140.2812  168.1120 C.ar    1  UNL1       -0.0004
     27 C         139.7539  140.4856  169.5843 C.ar    1  UNL1        0.0294
     28 C         140.3168  141.7801  170.0916 C.ar    1  UNL1        0.1401
     29 F         140.5184  141.9844  171.5640 F       1  UNL1       -0.2042
     30 C         140.6781  142.8703  169.1268 C.ar    1  UNL1        0.0294
     31 C         140.4765  142.6659  167.6544 C.ar    1  UNL1       -0.0004
@<TRIPOS>BOND
     1    23    24    1
     2    24    19    1
     3    19    20   am
     4    20    21    2
     5    20     1    1
     6     1     2    1
     7     1     3    1
     8     3     4    1
     9     4     5    1
    10     5    10    1
    11    10    11    2
    12    11    12    1
    13    12    13    2
    14    13    14    1
    15    14    15    2
    16    15    16    1
    17    16    17    2
    18    17    18    1
    19     5     6    1
    20     6     7    1
    21    24    25    1
    22    25    26   ar
    23    26    27   ar
    24    27    28   ar
    25    28    29    1
    26    28    30   ar
    27    30    31   ar
    28     7     1    1
    29    31    25   ar
    30    18    10    1
    31    18    14    1
    32    19    22    1
    33     2     8    1
    34     2     9    1
