@<TRIPOS>MOLECULE
*****
 35 39 0 0 0
SMALL
GASTEIGER

@<TRIPOS>ATOM
      1 C         141.4482  143.4226  159.7956 C.3     1  UNL1        0.0730
      2 N         140.8021  144.1055  160.9645 N.3     1  UNL1       -0.2726
      3 C         140.6675  145.5871  161.1560 C.3     1  UNL1        0.0721
      4 C         139.9594  145.8238  162.4569 C.3     1  UNL1        0.0190
      5 C         139.6562  144.4886  163.0695 C.3     1  UNL1        0.0201
      6 C         138.9820  145.0281  164.2959 C.3     1  UNL1        0.0061
      7 C         139.1165  143.5465  164.1044 C.3     1  UNL1        0.0237
      8 C         140.1771  143.4265  162.1471 C.3     1  UNL1        0.0724
      9 C         138.8826  142.1471  164.5914 C.ar    1  UNL1       -0.0225
     10 C         139.4996  141.6882  165.8793 C.ar    1  UNL1       -0.0043
     11 C         139.2657  140.2889  166.3663 C.ar    1  UNL1        0.0035
     12 C         138.4148  139.3485  165.5653 C.ar    1  UNL1        0.0714
     13 C         137.7978  139.8074  164.2774 C.ar    1  UNL1        0.0035
     14 C         138.0317  141.2067  163.7904 C.ar    1  UNL1       -0.0043
     15 C         138.1809  137.9492  166.0523 C.3     1  UNL1        0.4186
     16 F         137.9470  136.5497  166.5392 F       1  UNL1       -0.1659
     17 F         137.3941  138.4842  167.2118 F       1  UNL1       -0.1659
     18 F         138.9677  137.4141  164.8927 F       1  UNL1       -0.1659
     19 C         141.7677  141.9587  159.8650 C.3     1  UNL1        0.0294
     20 C         143.1948  141.4993  159.8170 C.3     1  UNL1        0.0666
     21 S         143.6498  140.3719  160.6956 S.3     1  UNL1       -0.0756
     22 C         143.8262  140.8671  164.5413 C.ar    1  UNL1        0.1680
     23 N         145.2323  141.2027  164.1410 N.ar    1  UNL1       -0.1282
     24 N         145.3374  141.0580  162.6517 N.ar    1  UNL1       -0.1221
     25 C         143.9962  140.6331  162.1315 C.ar    1  UNL1        0.1932
     26 N         143.0622  140.5151  163.2993 N.ar    1  UNL1       -0.2884
     27 C         141.6178  140.1153  163.2362 C.3     1  UNL1        0.1340
     28 C         141.6412  140.9232  170.1290 C.3     1  UNL1        0.0521
     29 C         142.1875  140.9092  168.7321 C.ar    1  UNL1        0.0590
     30 C         142.4615  142.2012  168.0210 C.ar    1  UNL1        0.0148
     31 C         143.0077  142.1872  166.6240 C.ar    1  UNL1        0.0054
     32 C         143.2799  140.8812  165.9383 C.ar    1  UNL1        0.0495
     33 C         143.0059  139.5892  166.6493 C.ar    1  UNL1        0.0619
     34 C         143.2781  138.2832  165.9635 C.3     1  UNL1        0.0522
     35 N         142.4596  139.6032  168.0463 N.ar    1  UNL1       -0.2539
@<TRIPOS>BOND
     1    28    29    1
     2    29    30   ar
     3    30    31   ar
     4    31    32   ar
     5    32    22    1
     6    22    23   ar
     7    23    24   ar
     8    24    25   ar
     9    25    21    1
    10    21    20    1
    11    20    19    1
    12    19     1    1
    13     1     2    1
    14     2     3    1
    15     3     4    1
    16     5     4    1
    17     5     6    1
    18     6     7    1
    19     7     9    1
    20     9    10   ar
    21    10    11   ar
    22    11    12   ar
    23    12    15    1
    24    15    16    1
    25    15    17    1
    26    15    18    1
    27    12    13   ar
    28    13    14   ar
    29     5     8    1
    30    25    26   ar
    31    26    27    1
    32    32    33   ar
    33    33    34    1
    34    33    35   ar
    35    35    29   ar
    36    26    22   ar
    37     8     2    1
    38     7     5    1
    39    14     9   ar
@<TRIPOS>MOLECULE
*****
 35 39 0 0 0
SMALL
GASTEIGER

@<TRIPOS>ATOM
      1 C         143.0334  143.9050  161.7686 C.3     1  UNL1        0.0730
      2 N         141.8226  144.2276  162.5933 N.3     1  UNL1       -0.2726
      3 C         140.7644  145.2336  162.2498 C.3     1  UNL1        0.0721
      4 C         139.7453  145.2284  163.3504 C.3     1  UNL1        0.0190
      5 C         140.1737  144.2193  164.3742 C.3     1  UNL1        0.0201
      6 C         139.0144  144.4345  165.3013 C.3     1  UNL1        0.0061
      7 C         140.0727  143.4285  165.6448 C.3     1  UNL1        0.0237
      8 C         141.4576  143.6007  163.9062 C.3     1  UNL1        0.0724
      9 C         140.6253  142.3911  166.5767 C.ar    1  UNL1       -0.0225
     10 C         140.4705  142.5562  168.0595 C.ar    1  UNL1       -0.0043
     11 C         141.0231  141.5188  168.9914 C.ar    1  UNL1        0.0035
     12 C         141.7306  140.3164  168.4405 C.ar    1  UNL1        0.0714
     13 C         141.8855  140.1513  166.9576 C.ar    1  UNL1        0.0035
     14 C         141.3329  141.1887  166.0257 C.ar    1  UNL1       -0.0043
     15 C         142.2833  139.2791  169.3724 C.3     1  UNL1        0.4186
     16 F         142.8360  138.2416  170.3043 F       1  UNL1       -0.1659
     17 F         141.4237  139.8149  170.4786 F       1  UNL1       -0.1659
     18 F         143.1429  138.7432  168.2661 F       1  UNL1       -0.1659
     19 C         142.8755  143.4803  160.3387 C.3     1  UNL1        0.0294
     20 C         143.8040  142.4581  159.7529 C.3     1  UNL1        0.0666
     21 S         143.3870  141.0190  159.6829 S.3     1  UNL1       -0.0756
     22 C         140.3994  139.9133  161.9004 C.ar    1  UNL1        0.1680
     23 N         139.7645  139.9211  160.5414 N.ar    1  UNL1       -0.1282
     24 N         140.8063  140.3363  159.5453 N.ar    1  UNL1       -0.1221
     25 C         142.0852  140.5850  160.2887 C.ar    1  UNL1        0.1932
     26 N         141.8338  140.3236  161.7442 N.ar    1  UNL1       -0.2884
     27 C         142.8400  140.4503  162.8494 C.3     1  UNL1        0.1340
     28 C         137.6797  138.4904  167.0558 C.3     1  UNL1        0.0521
     29 C         138.3596  138.8461  165.7669 C.ar    1  UNL1        0.0590
     30 C         138.0658  140.1578  165.1011 C.ar    1  UNL1        0.0148
     31 C         138.7458  140.5135  163.8123 C.ar    1  UNL1        0.0054
     32 C         139.7195  139.5576  163.1893 C.ar    1  UNL1        0.0495
     33 C         140.0132  138.2460  163.8550 C.ar    1  UNL1        0.0619
     34 C         140.9869  137.2901  163.2320 C.3     1  UNL1        0.0522
     35 N         139.3333  137.8902  165.1439 N.ar    1  UNL1       -0.2539
@<TRIPOS>BOND
     1    28    29    1
     2    29    30   ar
     3    30    31   ar
     4    31    32   ar
     5    32    22    1
     6    22    23   ar
     7    23    24   ar
     8    24    25   ar
     9    25    21    1
    10    21    20    1
    11    20    19    1
    12    19     1    1
    13     1     2    1
    14     2     3    1
    15     3     4    1
    16     5     4    1
    17     5     6    1
    18     6     7    1
    19     7     9    1
    20     9    10   ar
    21    10    11   ar
    22    11    12   ar
    23    12    15    1
    24    15    16    1
    25    15    17    1
    26    15    18    1
    27    12    13   ar
    28    13    14   ar
    29     5     8    1
    30    25    26   ar
    31    26    27    1
    32    32    33   ar
    33    33    34    1
    34    33    35   ar
    35    35    29   ar
    36    26    22   ar
    37     8     2    1
    38     7     5    1
    39    14     9   ar
@<TRIPOS>MOLECULE
*****
 35 39 0 0 0
SMALL
GASTEIGER

@<TRIPOS>ATOM
      1 C         142.7331  138.0618  162.6098 C.3     1  UNL1        0.0730
      2 N         141.4313  138.1465  163.3501 N.3     1  UNL1       -0.2726
      3 C         140.1407  137.5005  162.9410 C.3     1  UNL1        0.0721
      4 C         139.1033  137.8469  163.9676 C.3     1  UNL1        0.0190
      5 C         139.7527  138.7068  165.0111 C.3     1  UNL1        0.0201
      6 C         138.5259  138.8809  165.8564 C.3     1  UNL1        0.0061
      7 C         139.8164  139.5269  166.2654 C.3     1  UNL1        0.0237
      8 C         141.1914  138.8920  164.6294 C.3     1  UNL1        0.0724
      9 C         140.5982  140.3732  167.2258 C.ar    1  UNL1       -0.0225
     10 C         140.4026  141.8603  167.2460 C.ar    1  UNL1       -0.0043
     11 C         141.1845  142.7067  168.2063 C.ar    1  UNL1        0.0035
     12 C         142.1620  142.0660  169.1465 C.ar    1  UNL1        0.0714
     13 C         142.3576  140.5789  169.1263 C.ar    1  UNL1        0.0035
     14 C         141.5757  139.7325  168.1660 C.ar    1  UNL1       -0.0043
     15 C         142.9438  142.9123  170.1069 C.3     1  UNL1        0.4186
     16 F         143.7258  143.7587  171.0673 F       1  UNL1       -0.1659
     17 F         141.7823  143.8543  170.2224 F       1  UNL1       -0.1659
     18 F         144.1054  141.9703  169.9914 F       1  UNL1       -0.1659
     19 C         142.7392  137.8425  161.1259 C.3     1  UNL1        0.0294
     20 C         143.7261  138.5726  160.2638 C.3     1  UNL1        0.0666
     21 S         143.3818  139.9225  159.7080 S.3     1  UNL1       -0.0756
     22 C         140.5602  141.9111  161.4828 C.ar    1  UNL1        0.1680
     23 N         139.8686  141.4911  160.2197 N.ar    1  UNL1       -0.1282
     24 N         140.8414  140.6951  159.4012 N.ar    1  UNL1       -0.1221
     25 C         142.1343  140.6231  160.1583 C.ar    1  UNL1        0.1932
     26 N         141.9605  141.3746  161.4448 N.ar    1  UNL1       -0.2884
     27 C         143.0039  141.5574  162.5069 C.3     1  UNL1        0.1340
     28 C         138.1491  145.1654  165.9095 C.3     1  UNL1        0.0521
     29 C         138.7519  144.3518  164.8028 C.ar    1  UNL1        0.0590
     30 C         138.4004  142.9003  164.6619 C.ar    1  UNL1        0.0148
     31 C         139.0032  142.0868  163.5553 C.ar    1  UNL1        0.0054
     32 C         139.9574  142.7246  162.5895 C.ar    1  UNL1        0.0495
     33 C         140.3089  144.1760  162.7304 C.ar    1  UNL1        0.0619
     34 C         141.2631  144.8139  161.7647 C.3     1  UNL1        0.0522
     35 N         139.7061  144.9897  163.8371 N.ar    1  UNL1       -0.2539
@<TRIPOS>BOND
     1    28    29    1
     2    29    30   ar
     3    30    31   ar
     4    31    32   ar
     5    32    22    1
     6    22    23   ar
     7    23    24   ar
     8    24    25   ar
     9    25    21    1
    10    21    20    1
    11    20    19    1
    12    19     1    1
    13     1     2    1
    14     2     3    1
    15     3     4    1
    16     5     4    1
    17     5     6    1
    18     6     7    1
    19     7     9    1
    20     9    10   ar
    21    10    11   ar
    22    11    12   ar
    23    12    15    1
    24    15    16    1
    25    15    17    1
    26    15    18    1
    27    12    13   ar
    28    13    14   ar
    29     5     8    1
    30    25    26   ar
    31    26    27    1
    32    32    33   ar
    33    33    34    1
    34    33    35   ar
    35    35    29   ar
    36    26    22   ar
    37     8     2    1
    38     7     5    1
    39    14     9   ar
@<TRIPOS>MOLECULE
*****
 35 39 0 0 0
SMALL
GASTEIGER

@<TRIPOS>ATOM
      1 C         144.7594  140.7613  162.1474 C.3     1  UNL1        0.0730
      2 N         143.4966  140.5191  161.3750 N.3     1  UNL1       -0.2726
      3 C         143.3356  140.6391  159.8885 C.3     1  UNL1        0.0721
      4 C         141.9126  140.3085  159.5483 C.3     1  UNL1        0.0190
      5 C         141.1942  139.9841  160.8245 C.3     1  UNL1        0.0201
      6 C         139.8632  139.7093  160.1897 C.3     1  UNL1        0.0061
      7 C         140.0242  139.5893  161.6762 C.3     1  UNL1        0.0237
      8 C         142.1732  140.1143  161.9535 C.3     1  UNL1        0.0724
      9 C         139.4418  139.2920  163.0261 C.ar    1  UNL1       -0.0225
     10 C         139.5759  137.9189  163.6150 C.ar    1  UNL1       -0.0043
     11 C         138.9935  137.6217  164.9649 C.ar    1  UNL1        0.0035
     12 C         138.2769  138.6975  165.7260 C.ar    1  UNL1        0.0714
     13 C         138.1427  140.0705  165.1371 C.ar    1  UNL1        0.0035
     14 C         138.7252  140.3678  163.7871 C.ar    1  UNL1       -0.0043
     15 C         137.6944  138.4002  167.0759 C.3     1  UNL1        0.4186
     16 F         137.1119  138.1029  168.4259 F       1  UNL1       -0.1659
     17 F         137.3109  137.0276  166.6082 F       1  UNL1       -0.1659
     18 F         138.0779  139.7728  167.5436 F       1  UNL1       -0.1659
     19 C         145.0522  142.1258  162.6974 C.3     1  UNL1        0.0294
     20 C         144.4704  143.3410  162.0378 C.3     1  UNL1        0.0666
     21 S         143.6216  144.2905  162.8302 S.3     1  UNL1       -0.0756
     22 C         141.3549  142.7457  165.5764 C.ar    1  UNL1        0.1680
     23 N         140.3352  143.1552  164.5553 N.ar    1  UNL1       -0.1282
     24 N         141.0602  143.7838  163.4024 N.ar    1  UNL1       -0.1221
     25 C         142.5280  143.7627  163.7108 C.ar    1  UNL1        0.1932
     26 N         142.7102  143.1211  165.0544 N.ar    1  UNL1       -0.2884
     27 C         144.0180  142.8947  165.7533 C.3     1  UNL1        0.1340
     28 C         140.2133  140.0747  170.8263 C.3     1  UNL1        0.0521
     29 C         140.4987  140.7424  169.5138 C.ar    1  UNL1        0.0590
     30 C         140.2363  142.2098  169.3462 C.ar    1  UNL1        0.0148
     31 C         140.5217  142.8775  168.0337 C.ar    1  UNL1        0.0054
     32 C         141.0695  142.0779  166.8889 C.ar    1  UNL1        0.0495
     33 C         141.3320  140.6107  167.0565 C.ar    1  UNL1        0.0619
     34 C         141.8798  139.8111  165.9117 C.3     1  UNL1        0.0522
     35 N         141.0466  139.9428  168.3690 N.ar    1  UNL1       -0.2539
@<TRIPOS>BOND
     1    28    29    1
     2    29    30   ar
     3    30    31   ar
     4    31    32   ar
     5    32    22    1
     6    22    23   ar
     7    23    24   ar
     8    24    25   ar
     9    25    21    1
    10    21    20    1
    11    20    19    1
    12    19     1    1
    13     1     2    1
    14     2     3    1
    15     3     4    1
    16     5     4    1
    17     5     6    1
    18     6     7    1
    19     7     9    1
    20     9    10   ar
    21    10    11   ar
    22    11    12   ar
    23    12    15    1
    24    15    16    1
    25    15    17    1
    26    15    18    1
    27    12    13   ar
    28    13    14   ar
    29     5     8    1
    30    25    26   ar
    31    26    27    1
    32    32    33   ar
    33    33    34    1
    34    33    35   ar
    35    35    29   ar
    36    26    22   ar
    37     8     2    1
    38     7     5    1
    39    14     9   ar
@<TRIPOS>MOLECULE
*****
 35 39 0 0 0
SMALL
GASTEIGER

@<TRIPOS>ATOM
      1 C         142.0191  143.8486  160.8478 C.3     1  UNL1        0.0730
      2 N         143.1011  143.1024  161.5706 N.3     1  UNL1       -0.2726
      3 C         144.4720  142.8038  161.0399 C.3     1  UNL1        0.0721
      4 C         145.2203  142.0407  162.0924 C.3     1  UNL1        0.0190
      5 C         144.3119  141.8676  163.2735 C.3     1  UNL1        0.0201
      6 C         145.2930  141.1074  164.1158 C.3     1  UNL1        0.0061
      7 C         143.9221  141.4060  164.6464 C.3     1  UNL1        0.0237
      8 C         143.0022  142.5238  162.9510 C.3     1  UNL1        0.0724
      9 C         142.9057  141.3119  165.7454 C.ar    1  UNL1       -0.0225
     10 C         142.4895  139.9693  166.2692 C.ar    1  UNL1       -0.0043
     11 C         141.4730  139.8752  167.3682 C.ar    1  UNL1        0.0035
     12 C         140.8727  141.1237  167.9435 C.ar    1  UNL1        0.0714
     13 C         141.2889  142.4663  167.4197 C.ar    1  UNL1        0.0035
     14 C         142.3054  142.5604  166.3207 C.ar    1  UNL1       -0.0043
     15 C         139.8562  141.0296  169.0425 C.3     1  UNL1        0.4186
     16 F         138.8397  140.9355  170.1416 F       1  UNL1       -0.1659
     17 F         139.7996  139.5415  168.8627 F       1  UNL1       -0.1659
     18 F         139.9128  142.5177  169.2223 F       1  UNL1       -0.1659
     19 C         140.8243  143.1118  160.3192 C.3     1  UNL1        0.0294
     20 C         140.9604  142.2280  159.1149 C.3     1  UNL1        0.0666
     21 S         141.1363  140.7483  159.2865 S.3     1  UNL1       -0.0756
     22 C         140.4623  139.3433  162.8414 C.ar    1  UNL1        0.1680
     23 N         141.9402  139.1187  162.7163 N.ar    1  UNL1       -0.1282
     24 N         142.3725  139.6177  161.3694 N.ar    1  UNL1       -0.1221
     25 C         141.1619  140.1507  160.6621 C.ar    1  UNL1        0.1932
     26 N         139.9813  139.9811  161.5718 N.ar    1  UNL1       -0.2884
     27 C         138.5679  140.3794  161.2656 C.3     1  UNL1        0.1340
     28 C         137.0707  137.9376  167.5870 C.3     1  UNL1        0.0521
     29 C         137.9186  138.2890  166.4006 C.ar    1  UNL1        0.0590
     30 C         138.5340  137.2019  165.5701 C.ar    1  UNL1        0.0148
     31 C         139.3819  137.5534  164.3837 C.ar    1  UNL1        0.0054
     32 C         139.6144  138.9918  164.0278 C.ar    1  UNL1        0.0495
     33 C         138.9991  140.0789  164.8582 C.ar    1  UNL1        0.0619
     34 C         139.2316  141.5174  164.5023 C.3     1  UNL1        0.0522
     35 N         138.1511  139.7275  166.0446 N.ar    1  UNL1       -0.2539
@<TRIPOS>BOND
     1    28    29    1
     2    29    30   ar
     3    30    31   ar
     4    31    32   ar
     5    32    22    1
     6    22    23   ar
     7    23    24   ar
     8    24    25   ar
     9    25    21    1
    10    21    20    1
    11    20    19    1
    12    19     1    1
    13     1     2    1
    14     2     3    1
    15     3     4    1
    16     5     4    1
    17     5     6    1
    18     6     7    1
    19     7     9    1
    20     9    10   ar
    21    10    11   ar
    22    11    12   ar
    23    12    15    1
    24    15    16    1
    25    15    17    1
    26    15    18    1
    27    12    13   ar
    28    13    14   ar
    29     5     8    1
    30    25    26   ar
    31    26    27    1
    32    32    33   ar
    33    33    34    1
    34    33    35   ar
    35    35    29   ar
    36    26    22   ar
    37     8     2    1
    38     7     5    1
    39    14     9   ar
@<TRIPOS>MOLECULE
*****
 35 39 0 0 0
SMALL
GASTEIGER

@<TRIPOS>ATOM
      1 C         142.8757  142.8028  160.4247 C.3     1  UNL1        0.0730
      2 N         141.8273  143.5793  161.1649 N.3     1  UNL1       -0.2726
      3 C         141.5365  145.0421  161.0051 C.3     1  UNL1        0.0721
      4 C         140.4150  145.3961  161.9362 C.3     1  UNL1        0.0190
      5 C         140.0127  144.1521  162.6714 C.3     1  UNL1        0.0201
      6 C         138.9279  144.7942  163.4843 C.3     1  UNL1        0.0061
      7 C         139.2186  143.3314  163.6440 C.3     1  UNL1        0.0237
      8 C         140.8855  143.0292  162.1947 C.3     1  UNL1        0.0724
      9 C         138.9281  142.0130  164.2978 C.ar    1  UNL1       -0.0225
     10 C         138.1817  140.9512  163.5457 C.ar    1  UNL1       -0.0043
     11 C         137.8911  139.6328  164.1994 C.ar    1  UNL1        0.0035
     12 C         138.3470  139.3762  165.6052 C.ar    1  UNL1        0.0714
     13 C         139.0935  140.4379  166.3573 C.ar    1  UNL1        0.0035
     14 C         139.3840  141.7563  165.7036 C.ar    1  UNL1       -0.0043
     15 C         138.0565  138.0578  166.2590 C.3     1  UNL1        0.4186
     16 F         137.7660  136.7393  166.9127 F       1  UNL1       -0.1659
     17 F         137.5665  138.7728  167.4832 F       1  UNL1       -0.1659
     18 F         138.5465  137.3428  165.0348 F       1  UNL1       -0.1659
     19 C         142.4778  141.6543  159.5459 C.3     1  UNL1        0.0294
     20 C         143.3764  140.4598  159.4196 C.3     1  UNL1        0.0666
     21 S         143.9747  139.8384  160.6467 S.3     1  UNL1       -0.0756
     22 C         142.6137  140.0128  164.2775 C.ar    1  UNL1        0.1680
     23 N         141.3963  139.5496  163.5335 N.ar    1  UNL1       -0.1282
     24 N         141.7580  139.4279  162.0828 N.ar    1  UNL1       -0.1221
     25 C         143.1989  139.8159  161.9303 C.ar    1  UNL1        0.1932
     26 N         143.7278  140.1773  163.2866 N.ar    1  UNL1       -0.2884
     27 C         145.1253  140.6248  163.5975 C.3     1  UNL1        0.1340
     28 C         142.9651  141.0288  170.1804 C.3     1  UNL1        0.0521
     29 C         142.8772  140.7748  168.7046 C.ar    1  UNL1        0.0590
     30 C         142.7869  139.3688  168.1897 C.ar    1  UNL1        0.0148
     31 C         142.6991  139.1148  166.7140 C.ar    1  UNL1        0.0054
     32 C         142.7015  140.2668  165.7533 C.ar    1  UNL1        0.0495
     33 C         142.7918  141.6727  166.2682 C.ar    1  UNL1        0.0619
     34 C         142.7943  142.8246  165.3074 C.3     1  UNL1        0.0522
     35 N         142.8797  141.9268  167.7439 N.ar    1  UNL1       -0.2539
@<TRIPOS>BOND
     1    28    29    1
     2    29    30   ar
     3    30    31   ar
     4    31    32   ar
     5    32    22    1
     6    22    23   ar
     7    23    24   ar
     8    24    25   ar
     9    25    21    1
    10    21    20    1
    11    20    19    1
    12    19     1    1
    13     1     2    1
    14     2     3    1
    15     3     4    1
    16     5     4    1
    17     5     6    1
    18     6     7    1
    19     7     9    1
    20     9    10   ar
    21    10    11   ar
    22    11    12   ar
    23    12    15    1
    24    15    16    1
    25    15    17    1
    26    15    18    1
    27    12    13   ar
    28    13    14   ar
    29     5     8    1
    30    25    26   ar
    31    26    27    1
    32    32    33   ar
    33    33    34    1
    34    33    35   ar
    35    35    29   ar
    36    26    22   ar
    37     8     2    1
    38     7     5    1
    39    14     9   ar
@<TRIPOS>MOLECULE
*****
 35 39 0 0 0
SMALL
GASTEIGER

@<TRIPOS>ATOM
      1 C         142.7977  142.9750  159.6864 C.3     1  UNL1        0.0730
      2 N         142.9222  141.4809  159.6382 N.3     1  UNL1       -0.2726
      3 C         143.7265  140.6948  158.6457 C.3     1  UNL1        0.0721
      4 C         143.5656  139.2387  158.9682 C.3     1  UNL1        0.0190
      5 C         142.6619  139.1250  160.1600 C.3     1  UNL1        0.0201
      6 C         142.6912  137.6273  160.2366 C.3     1  UNL1        0.0061
      7 C         141.8869  138.4134  161.2291 C.3     1  UNL1        0.0237
      8 C         142.2642  140.5108  160.5741 C.3     1  UNL1        0.0724
      9 C         140.9751  138.4564  162.4194 C.ar    1  UNL1       -0.0225
     10 C         141.3917  137.8096  163.7071 C.ar    1  UNL1       -0.0043
     11 C         140.4799  137.8527  164.8973 C.ar    1  UNL1        0.0035
     12 C         139.1515  138.5426  164.7999 C.ar    1  UNL1        0.0714
     13 C         138.7350  139.1894  163.5122 C.ar    1  UNL1        0.0035
     14 C         139.6468  139.1464  162.3220 C.ar    1  UNL1       -0.0043
     15 C         138.2398  138.5856  165.9902 C.3     1  UNL1        0.4186
     16 F         137.3279  138.6287  167.1805 F       1  UNL1       -0.1659
     17 F         138.3408  140.0820  166.0134 F       1  UNL1       -0.1659
     18 F         138.1387  137.0892  165.9669 F       1  UNL1       -0.1659
     19 C         141.7657  143.6690  158.8479 C.3     1  UNL1        0.0294
     20 C         141.4235  145.1048  159.1157 C.3     1  UNL1        0.0666
     21 S         140.3025  145.4466  160.0518 S.3     1  UNL1       -0.0756
     22 C         139.9650  143.2524  163.2358 C.ar    1  UNL1        0.1680
     23 N         138.7505  142.8306  162.4629 N.ar    1  UNL1       -0.1282
     24 N         138.7291  143.6012  161.1762 N.ar    1  UNL1       -0.1221
     25 C         139.9304  144.4993  161.1537 C.ar    1  UNL1        0.1932
     26 N         140.6942  144.2838  162.4266 N.ar    1  UNL1       -0.2884
     27 C         141.9642  144.9777  162.8210 C.3     1  UNL1        0.1340
     28 C         141.6160  141.1786  168.6184 C.3     1  UNL1        0.0521
     29 C         141.2032  141.6971  167.2728 C.ar    1  UNL1        0.0590
     30 C         141.7408  141.0591  166.0261 C.ar    1  UNL1        0.0148
     31 C         141.3280  141.5776  164.6804 C.ar    1  UNL1        0.0054
     32 C         140.3777  142.7339  164.5814 C.ar    1  UNL1        0.0495
     33 C         139.8402  143.3719  165.8280 C.ar    1  UNL1        0.0619
     34 C         138.8900  144.5283  165.7290 C.3     1  UNL1        0.0522
     35 N         140.2529  142.8535  167.1738 N.ar    1  UNL1       -0.2539
@<TRIPOS>BOND
     1    28    29    1
     2    29    30   ar
     3    30    31   ar
     4    31    32   ar
     5    32    22    1
     6    22    23   ar
     7    23    24   ar
     8    24    25   ar
     9    25    21    1
    10    21    20    1
    11    20    19    1
    12    19     1    1
    13     1     2    1
    14     2     3    1
    15     3     4    1
    16     5     4    1
    17     5     6    1
    18     6     7    1
    19     7     9    1
    20     9    10   ar
    21    10    11   ar
    22    11    12   ar
    23    12    15    1
    24    15    16    1
    25    15    17    1
    26    15    18    1
    27    12    13   ar
    28    13    14   ar
    29     5     8    1
    30    25    26   ar
    31    26    27    1
    32    32    33   ar
    33    33    34    1
    34    33    35   ar
    35    35    29   ar
    36    26    22   ar
    37     8     2    1
    38     7     5    1
    39    14     9   ar
@<TRIPOS>MOLECULE
*****
 35 39 0 0 0
SMALL
GASTEIGER

@<TRIPOS>ATOM
      1 C         141.8958  142.3610  167.2318 C.3     1  UNL1        0.0730
      2 N         140.7911  141.3524  167.3429 N.3     1  UNL1       -0.2726
      3 C         140.2028  140.8261  168.6185 C.3     1  UNL1        0.0721
      4 C         139.1289  139.8414  168.2619 C.3     1  UNL1        0.0190
      5 C         139.0535  139.7591  166.7661 C.3     1  UNL1        0.0201
      6 C         137.9470  138.7474  166.7202 C.3     1  UNL1        0.0061
      7 C         138.5353  139.2737  165.4447 C.3     1  UNL1        0.0237
      8 C         140.0809  140.6930  166.1981 C.3     1  UNL1        0.0724
      9 C         138.5758  139.2973  163.9455 C.ar    1  UNL1       -0.0225
     10 C         139.3283  138.2361  163.1987 C.ar    1  UNL1       -0.0043
     11 C         139.3688  138.2597  161.6995 C.ar    1  UNL1        0.0035
     12 C         138.6568  139.3445  160.9470 C.ar    1  UNL1        0.0714
     13 C         137.9043  140.4057  161.6937 C.ar    1  UNL1        0.0035
     14 C         137.8638  140.3821  163.1930 C.ar    1  UNL1       -0.0043
     15 C         138.6973  139.3681  159.4477 C.3     1  UNL1        0.4186
     16 F         138.7378  139.3917  157.9484 F       1  UNL1       -0.1659
     17 F         139.5218  138.1150  159.4503 F       1  UNL1       -0.1659
     18 F         137.8729  140.6212  159.4452 F       1  UNL1       -0.1659
     19 C         143.1603  142.0113  166.5046 C.3     1  UNL1        0.0294
     20 C         144.0126  143.0970  165.9172 C.3     1  UNL1        0.0666
     21 S         143.7774  143.5559  164.5087 S.3     1  UNL1       -0.0756
     22 C         142.3555  141.1427  161.8216 C.ar    1  UNL1        0.1680
     23 N         141.0923  141.6775  162.4285 N.ar    1  UNL1       -0.1282
     24 N         141.4712  142.6466  163.5090 N.ar    1  UNL1       -0.1221
     25 C         142.9686  142.7107  163.5698 C.ar    1  UNL1        0.1932
     26 N         143.5152  141.7813  162.5270 N.ar    1  UNL1       -0.2884
     27 C         144.9665  141.5339  162.2399 C.3     1  UNL1        0.1340
     28 C         142.7080  137.1503  157.3566 C.3     1  UNL1        0.0521
     29 C         142.6198  138.1484  158.4729 C.ar    1  UNL1        0.0590
     30 C         142.2552  139.5732  158.1778 C.ar    1  UNL1        0.0148
     31 C         142.1671  140.5713  159.2941 C.ar    1  UNL1        0.0054
     32 C         142.4436  140.1446  160.7053 C.ar    1  UNL1        0.0495
     33 C         142.8082  138.7198  161.0003 C.ar    1  UNL1        0.0619
     34 C         143.0847  138.2931  162.4115 C.3     1  UNL1        0.0522
     35 N         142.8963  137.7217  159.8841 N.ar    1  UNL1       -0.2539
@<TRIPOS>BOND
     1    28    29    1
     2    29    30   ar
     3    30    31   ar
     4    31    32   ar
     5    32    22    1
     6    22    23   ar
     7    23    24   ar
     8    24    25   ar
     9    25    21    1
    10    21    20    1
    11    20    19    1
    12    19     1    1
    13     1     2    1
    14     2     3    1
    15     3     4    1
    16     5     4    1
    17     5     6    1
    18     6     7    1
    19     7     9    1
    20     9    10   ar
    21    10    11   ar
    22    11    12   ar
    23    12    15    1
    24    15    16    1
    25    15    17    1
    26    15    18    1
    27    12    13   ar
    28    13    14   ar
    29     5     8    1
    30    25    26   ar
    31    26    27    1
    32    32    33   ar
    33    33    34    1
    34    33    35   ar
    35    35    29   ar
    36    26    22   ar
    37     8     2    1
    38     7     5    1
    39    14     9   ar
@<TRIPOS>MOLECULE
*****
 35 39 0 0 0
SMALL
GASTEIGER

@<TRIPOS>ATOM
      1 C         137.3709  141.8952  162.5550 C.3     1  UNL1        0.0730
      2 N         137.9560  140.5656  162.9288 N.3     1  UNL1       -0.2726
      3 C         137.8933  139.3123  162.1069 C.3     1  UNL1        0.0721
      4 C         138.6051  138.2280  162.8602 C.3     1  UNL1        0.0190
      5 C         139.1078  138.8111  164.1476 C.3     1  UNL1        0.0201
      6 C         139.7423  137.5497  164.6538 C.3     1  UNL1        0.0061
      7 C         139.8051  138.8029  165.4757 C.3     1  UNL1        0.0237
      8 C         138.7067  140.2558  164.1899 C.3     1  UNL1        0.0724
      9 C         140.2439  139.5218  166.7169 C.ar    1  UNL1       -0.0225
     10 C         139.2578  139.7945  167.8139 C.ar    1  UNL1       -0.0043
     11 C         139.6966  140.5134  169.0551 C.ar    1  UNL1        0.0035
     12 C         141.1214  140.9595  169.1994 C.ar    1  UNL1        0.0714
     13 C         142.1075  140.6868  168.1024 C.ar    1  UNL1        0.0035
     14 C         141.6687  139.9679  166.8611 C.ar    1  UNL1       -0.0043
     15 C         141.5602  141.6784  170.4406 C.3     1  UNL1        0.4186
     16 F         141.9990  142.3973  171.6819 F       1  UNL1       -0.1659
     17 F         141.1180  140.5114  171.2728 F       1  UNL1       -0.1659
     18 F         142.0023  142.8454  169.6084 F       1  UNL1       -0.1659
     19 C         137.4825  143.0557  163.4989 C.3     1  UNL1        0.0294
     20 C         137.6996  144.4400  162.9633 C.3     1  UNL1        0.0666
     21 S         139.0879  144.9143  162.6512 S.3     1  UNL1       -0.0756
     22 C         141.9214  142.2617  162.6181 C.ar    1  UNL1        0.1680
     23 N         141.7481  142.5191  161.1505 N.ar    1  UNL1       -0.1282
     24 N         140.6655  143.5440  160.9843 N.ar    1  UNL1       -0.1221
     25 C         140.1698  143.9202  162.3491 C.ar    1  UNL1        0.1932
     26 N         140.9460  143.1277  163.3589 N.ar    1  UNL1       -0.2884
     27 C         140.7764  143.1901  164.8480 C.3     1  UNL1        0.1340
     28 C         145.8301  138.4398  165.0909 C.3     1  UNL1        0.0521
     29 C         144.8529  139.3953  164.4727 C.ar    1  UNL1        0.0590
     30 C         143.5519  138.8878  163.9251 C.ar    1  UNL1        0.0148
     31 C         142.5747  139.8433  163.3069 C.ar    1  UNL1        0.0054
     32 C         142.8986  141.3062  163.2363 C.ar    1  UNL1        0.0495
     33 C         144.1996  141.8137  163.7839 C.ar    1  UNL1        0.0619
     34 C         144.5234  143.2766  163.7132 C.3     1  UNL1        0.0522
     35 N         145.1768  140.8582  164.4021 N.ar    1  UNL1       -0.2539
@<TRIPOS>BOND
     1    28    29    1
     2    29    30   ar
     3    30    31   ar
     4    31    32   ar
     5    32    22    1
     6    22    23   ar
     7    23    24   ar
     8    24    25   ar
     9    25    21    1
    10    21    20    1
    11    20    19    1
    12    19     1    1
    13     1     2    1
    14     2     3    1
    15     3     4    1
    16     5     4    1
    17     5     6    1
    18     6     7    1
    19     7     9    1
    20     9    10   ar
    21    10    11   ar
    22    11    12   ar
    23    12    15    1
    24    15    16    1
    25    15    17    1
    26    15    18    1
    27    12    13   ar
    28    13    14   ar
    29     5     8    1
    30    25    26   ar
    31    26    27    1
    32    32    33   ar
    33    33    34    1
    34    33    35   ar
    35    35    29   ar
    36    26    22   ar
    37     8     2    1
    38     7     5    1
    39    14     9   ar
