@<TRIPOS>MOLECULE
*****
 29 31 0 0 0
SMALL
GASTEIGER

@<TRIPOS>ATOM
      1 N         140.8197  140.3702  167.5358 N.ar    1  UNL1       -0.2729
      2 C         140.3559  140.3563  168.9622 C.ar    1  UNL1        0.0860
      3 C         141.2044  139.7160  170.0205 C.ar    1  UNL1        0.0561
      4 C         142.5167  139.0897  169.6525 C.ar    1  UNL1        0.1453
      5 C         142.9805  139.1036  168.2261 C.ar    1  UNL1        0.0980
      6 C         142.1320  139.7439  167.1677 C.ar    1  UNL1        0.2679
      7 O         142.5958  139.7578  165.7413 O.2     1  UNL1       -0.2665
      8 C         138.2741  142.2910  164.3608 C.ar    1  UNL1        0.1387
      9 C         139.2943  143.1060  165.0989 C.ar    1  UNL1        0.0384
     10 C         140.1429  142.4658  166.1572 C.ar    1  UNL1        0.0207
     11 C         139.9712  141.0105  166.4774 C.ar    1  UNL1        0.0671
     12 C         138.9510  140.1955  165.7393 C.ar    1  UNL1        0.0207
     13 C         138.1024  140.8357  164.6810 C.ar    1  UNL1        0.0384
     14 O         137.4256  142.9313  163.3024 O.3     1  UNL1       -0.4740
     15 C         137.9297  143.0266  161.8929 C.3     1  UNL1        0.2226
     16 C         139.2504  142.4174  161.5259 C.3     1  UNL1        0.1200
     17 N         139.3276  140.9694  161.1418 N.3     1  UNL1       -0.2696
     18 C         141.4204  140.6636  162.6507 C.3     1  UNL1        0.0188
     19 C         140.3429  140.0748  161.7891 C.3     1  UNL1        0.0722
     20 C         138.3895  140.4160  160.1104 C.3     1  UNL1        0.0722
     21 C         138.9182  139.5589  158.9987 C.3     1  UNL1        0.0188
     22 O         143.3652  138.4494  170.7108 O.3     1  UNL1       -0.4704
     23 C         143.7198  136.9954  170.6099 C.3     1  UNL1        0.2320
     24 C         144.6706  136.3851  171.5965 C.ar    1  UNL1        0.0212
     25 C         144.6618  134.9031  171.8285 C.ar    1  UNL1       -0.0007
     26 C         145.6127  134.2928  172.8151 C.ar    1  UNL1       -0.0002
     27 C         146.5723  135.1644  173.5697 C.ar    1  UNL1       -0.0000
     28 C         146.5810  136.6463  173.3378 C.ar    1  UNL1       -0.0002
     29 C         145.6302  137.2567  172.3512 C.ar    1  UNL1       -0.0007
@<TRIPOS>BOND
     1    18    19    1
     2    19    17    1
     3    17    20    1
     4    20    21    1
     5    17    16    1
     6    16    15    1
     7    15    14    1
     8    14     8    1
     9     8     9   ar
    10     9    10   ar
    11    10    11   ar
    12    11     1    1
    13     1     2   ar
    14     2     3   ar
    15     3     4   ar
    16     4    22    1
    17    22    23    1
    18    23    24    1
    19    24    25   ar
    20    25    26   ar
    21    26    27   ar
    22    27    28   ar
    23    28    29   ar
    24     4     5   ar
    25     5     6   ar
    26     6     7    2
    27    11    12   ar
    28    12    13   ar
    29    13     8   ar
    30     6     1   ar
    31    29    24   ar
@<TRIPOS>MOLECULE
*****
 29 31 0 0 0
SMALL
GASTEIGER

@<TRIPOS>ATOM
      1 N         139.9363  138.7631  161.8919 N.ar    1  UNL1       -0.2729
      2 C         139.4990  137.6109  162.7470 C.ar    1  UNL1        0.0860
      3 C         138.9572  137.8614  164.1231 C.ar    1  UNL1        0.0561
      4 C         138.8527  139.2640  164.6442 C.ar    1  UNL1        0.1453
      5 C         139.2899  140.4162  163.7891 C.ar    1  UNL1        0.0980
      6 C         139.8317  140.1658  162.4130 C.ar    1  UNL1        0.2679
      7 O         140.2690  141.3181  161.5579 O.2     1  UNL1       -0.2665
      8 C         141.5616  138.0117  157.7635 C.ar    1  UNL1        0.1387
      9 C         140.1043  138.3124  157.9525 C.ar    1  UNL1        0.0384
     10 C         139.5625  138.5628  159.3287 C.ar    1  UNL1        0.0207
     11 C         140.4780  138.5126  160.5158 C.ar    1  UNL1        0.0671
     12 C         141.9354  138.2120  160.3267 C.ar    1  UNL1        0.0207
     13 C         142.4771  137.9615  158.9506 C.ar    1  UNL1        0.0384
     14 O         142.1034  137.7612  156.3874 O.3     1  UNL1       -0.4740
     15 C         143.5400  137.3695  156.2068 C.3     1  UNL1        0.2226
     16 C         143.8910  135.9640  155.8178 C.3     1  UNL1        0.1200
     17 N         143.1120  134.8129  156.3821 N.3     1  UNL1       -0.2696
     18 C         141.7673  134.5643  154.1731 C.3     1  UNL1        0.0188
     19 C         141.9315  134.2678  155.6342 C.3     1  UNL1        0.0722
     20 C         143.5135  134.2071  157.6942 C.3     1  UNL1        0.0722
     21 C         144.4956  133.0737  157.7278 C.3     1  UNL1        0.0188
     22 O         138.3109  139.5145  166.0203 O.3     1  UNL1       -0.4704
     23 C         139.2031  139.3634  167.2166 C.3     1  UNL1        0.2320
     24 C         139.6083  140.5719  168.0074 C.ar    1  UNL1        0.0212
     25 C         140.2587  141.7352  167.3191 C.ar    1  UNL1       -0.0007
     26 C         140.6639  142.9437  168.1100 C.ar    1  UNL1       -0.0002
     27 C         140.4185  142.9889  169.5891 C.ar    1  UNL1       -0.0000
     28 C         139.7681  141.8256  170.2773 C.ar    1  UNL1       -0.0002
     29 C         139.3629  140.6171  169.4865 C.ar    1  UNL1       -0.0007
@<TRIPOS>BOND
     1    18    19    1
     2    19    17    1
     3    17    20    1
     4    20    21    1
     5    17    16    1
     6    16    15    1
     7    15    14    1
     8    14     8    1
     9     8     9   ar
    10     9    10   ar
    11    10    11   ar
    12    11     1    1
    13     1     2   ar
    14     2     3   ar
    15     3     4   ar
    16     4    22    1
    17    22    23    1
    18    23    24    1
    19    24    25   ar
    20    25    26   ar
    21    26    27   ar
    22    27    28   ar
    23    28    29   ar
    24     4     5   ar
    25     5     6   ar
    26     6     7    2
    27    11    12   ar
    28    12    13   ar
    29    13     8   ar
    30     6     1   ar
    31    29    24   ar
@<TRIPOS>MOLECULE
*****
 29 31 0 0 0
SMALL
GASTEIGER

@<TRIPOS>ATOM
      1 N         140.7333  138.4922  160.6825 N.ar    1  UNL1       -0.2729
      2 C         142.1649  138.0448  160.6694 C.ar    1  UNL1        0.0860
      3 C         142.8530  137.7705  159.3651 C.ar    1  UNL1        0.0561
      4 C         142.1095  137.9437  158.0739 C.ar    1  UNL1        0.1453
      5 C         140.6779  138.3911  158.0871 C.ar    1  UNL1        0.0980
      6 C         139.9898  138.6654  159.3914 C.ar    1  UNL1        0.2679
      7 O         138.5581  139.1128  159.4045 O.2     1  UNL1       -0.2665
      8 C         138.6690  139.3150  164.5955 C.ar    1  UNL1        0.1387
      9 C         139.1362  140.4549  163.7398 C.ar    1  UNL1        0.0384
     10 C         139.8243  140.1806  162.4355 C.ar    1  UNL1        0.0207
     11 C         140.0452  138.7665  161.9869 C.ar    1  UNL1        0.0671
     12 C         139.5779  137.6266  162.8426 C.ar    1  UNL1        0.0207
     13 C         138.8898  137.9009  164.1469 C.ar    1  UNL1        0.0384
     14 O         137.9809  139.5893  165.8999 O.3     1  UNL1       -0.4740
     15 C         138.6752  139.2817  167.1934 C.3     1  UNL1        0.2226
     16 C         139.6772  140.2466  167.7546 C.3     1  UNL1        0.1200
     17 N         140.9378  140.5437  166.9977 N.3     1  UNL1       -0.2696
     18 C         140.2107  142.9412  166.3099 C.3     1  UNL1        0.0188
     19 C         141.2917  141.9610  166.6571 C.3     1  UNL1        0.0722
     20 C         141.8444  139.4235  166.5816 C.3     1  UNL1        0.0722
     21 C         142.4342  139.4089  165.2024 C.3     1  UNL1        0.0188
     22 O         142.7976  137.6694  156.7696 O.3     1  UNL1       -0.4704
     23 C         142.2058  136.6888  155.8010 C.3     1  UNL1        0.2320
     24 C         142.3636  135.2155  156.0347 C.ar    1  UNL1        0.0212
     25 C         141.5139  134.2404  155.2749 C.ar    1  UNL1       -0.0007
     26 C         141.6717  132.7672  155.5086 C.ar    1  UNL1       -0.0002
     27 C         142.6791  132.2690  156.5021 C.ar    1  UNL1       -0.0000
     28 C         143.5288  133.2441  157.2618 C.ar    1  UNL1       -0.0002
     29 C         143.3710  134.7174  157.0281 C.ar    1  UNL1       -0.0007
@<TRIPOS>BOND
     1    18    19    1
     2    19    17    1
     3    17    20    1
     4    20    21    1
     5    17    16    1
     6    16    15    1
     7    15    14    1
     8    14     8    1
     9     8     9   ar
    10     9    10   ar
    11    10    11   ar
    12    11     1    1
    13     1     2   ar
    14     2     3   ar
    15     3     4   ar
    16     4    22    1
    17    22    23    1
    18    23    24    1
    19    24    25   ar
    20    25    26   ar
    21    26    27   ar
    22    27    28   ar
    23    28    29   ar
    24     4     5   ar
    25     5     6   ar
    26     6     7    2
    27    11    12   ar
    28    12    13   ar
    29    13     8   ar
    30     6     1   ar
    31    29    24   ar
@<TRIPOS>MOLECULE
*****
 29 31 0 0 0
SMALL
GASTEIGER

@<TRIPOS>ATOM
      1 N         140.4739  138.5106  160.6631 N.ar    1  UNL1       -0.2729
      2 C         139.6117  138.5884  159.4382 C.ar    1  UNL1        0.0860
      3 C         140.2075  138.3382  158.0845 C.ar    1  UNL1        0.0561
      4 C         141.6655  138.0100  157.9558 C.ar    1  UNL1        0.1453
      5 C         142.5277  137.9321  159.1807 C.ar    1  UNL1        0.0980
      6 C         141.9319  138.1824  160.5344 C.ar    1  UNL1        0.2679
      7 O         142.7941  138.1045  161.7594 O.2     1  UNL1       -0.2665
      8 C         138.6866  139.2614  164.7241 C.ar    1  UNL1        0.1387
      9 C         138.9310  140.4081  163.7886 C.ar    1  UNL1        0.0384
     10 C         139.5267  140.1578  162.4349 C.ar    1  UNL1        0.0207
     11 C         139.8781  138.7608  162.0168 C.ar    1  UNL1        0.0671
     12 C         139.6337  137.6141  162.9523 C.ar    1  UNL1        0.0207
     13 C         139.0380  137.8644  164.3060 C.ar    1  UNL1        0.0384
     14 O         138.0908  139.5116  166.0778 O.3     1  UNL1       -0.4740
     15 C         138.9344  139.3581  167.3085 C.3     1  UNL1        0.2226
     16 C         140.0111  140.3581  167.6093 C.3     1  UNL1        0.1200
     17 N         141.4516  139.9948  167.4011 N.3     1  UNL1       -0.2696
     18 C         142.9388  138.4577  165.9262 C.3     1  UNL1        0.0188
     19 C         141.9267  139.5581  166.0470 C.3     1  UNL1        0.0722
     20 C         142.4168  140.0681  168.5469 C.3     1  UNL1        0.0722
     21 C         142.2400  139.1698  169.7352 C.3     1  UNL1        0.0188
     22 O         142.2613  137.7598  156.6021 O.3     1  UNL1       -0.4704
     23 C         143.3170  136.7082  156.4301 C.3     1  UNL1        0.2320
     24 C         142.9245  135.2673  156.2894 C.ar    1  UNL1        0.0212
     25 C         141.8020  134.8819  155.3720 C.ar    1  UNL1       -0.0007
     26 C         141.4094  133.4411  155.2312 C.ar    1  UNL1       -0.0002
     27 C         142.1394  132.3856  156.0079 C.ar    1  UNL1       -0.0000
     28 C         143.2619  132.7710  156.9252 C.ar    1  UNL1       -0.0002
     29 C         143.6544  134.2118  157.0660 C.ar    1  UNL1       -0.0007
@<TRIPOS>BOND
     1    18    19    1
     2    19    17    1
     3    17    20    1
     4    20    21    1
     5    17    16    1
     6    16    15    1
     7    15    14    1
     8    14     8    1
     9     8     9   ar
    10     9    10   ar
    11    10    11   ar
    12    11     1    1
    13     1     2   ar
    14     2     3   ar
    15     3     4   ar
    16     4    22    1
    17    22    23    1
    18    23    24    1
    19    24    25   ar
    20    25    26   ar
    21    26    27   ar
    22    27    28   ar
    23    28    29   ar
    24     4     5   ar
    25     5     6   ar
    26     6     7    2
    27    11    12   ar
    28    12    13   ar
    29    13     8   ar
    30     6     1   ar
    31    29    24   ar
@<TRIPOS>MOLECULE
*****
 29 31 0 0 0
SMALL
GASTEIGER

@<TRIPOS>ATOM
      1 N         141.0852  138.4487  161.4617 N.ar    1  UNL1       -0.2729
      2 C         142.4667  137.9077  161.2414 C.ar    1  UNL1        0.0860
      3 C         142.9743  137.6925  159.8464 C.ar    1  UNL1        0.0561
      4 C         142.1003  138.0184  158.6717 C.ar    1  UNL1        0.1453
      5 C         140.7188  138.5594  158.8920 C.ar    1  UNL1        0.0980
      6 C         140.2112  138.7746  160.2871 C.ar    1  UNL1        0.2679
      7 O         138.8296  139.3156  160.5073 O.2     1  UNL1       -0.2665
      8 C         139.5625  139.0943  165.6468 C.ar    1  UNL1        0.1387
      9 C         140.4006  140.1464  164.9830 C.ar    1  UNL1        0.0384
     10 C         140.9082  139.9312  163.5880 C.ar    1  UNL1        0.0207
     11 C         140.5776  138.6639  162.8568 C.ar    1  UNL1        0.0671
     12 C         139.7396  137.6119  163.5206 C.ar    1  UNL1        0.0207
     13 C         139.2320  137.8270  164.9156 C.ar    1  UNL1        0.0384
     14 O         139.0550  139.3095  167.0418 O.3     1  UNL1       -0.4740
     15 C         139.6191  140.4160  167.8828 C.3     1  UNL1        0.2226
     16 C         140.5885  140.1018  168.9836 C.3     1  UNL1        0.1200
     17 N         141.0820  141.1959  169.8833 N.3     1  UNL1       -0.2696
     18 C         140.3164  143.6645  169.6183 C.3     1  UNL1        0.0188
     19 C         140.1670  142.3207  170.2678 C.3     1  UNL1        0.0722
     20 C         142.4903  141.1653  170.3986 C.3     1  UNL1        0.0722
     21 C         143.5390  142.0323  169.7672 C.3     1  UNL1        0.0188
     22 O         142.6079  137.8032  157.2767 O.3     1  UNL1       -0.4704
     23 C         141.8672  136.8945  156.3409 C.3     1  UNL1        0.2320
     24 C         142.1712  135.4257  156.3243 C.ar    1  UNL1        0.0212
     25 C         143.2420  134.8713  157.2166 C.ar    1  UNL1       -0.0007
     26 C         143.5460  133.4025  157.2000 C.ar    1  UNL1       -0.0002
     27 C         142.7792  132.4882  156.2911 C.ar    1  UNL1       -0.0000
     28 C         141.7084  133.0426  155.3989 C.ar    1  UNL1       -0.0002
     29 C         141.4044  134.5114  155.4155 C.ar    1  UNL1       -0.0007
@<TRIPOS>BOND
     1    18    19    1
     2    19    17    1
     3    17    20    1
     4    20    21    1
     5    17    16    1
     6    16    15    1
     7    15    14    1
     8    14     8    1
     9     8     9   ar
    10     9    10   ar
    11    10    11   ar
    12    11     1    1
    13     1     2   ar
    14     2     3   ar
    15     3     4   ar
    16     4    22    1
    17    22    23    1
    18    23    24    1
    19    24    25   ar
    20    25    26   ar
    21    26    27   ar
    22    27    28   ar
    23    28    29   ar
    24     4     5   ar
    25     5     6   ar
    26     6     7    2
    27    11    12   ar
    28    12    13   ar
    29    13     8   ar
    30     6     1   ar
    31    29    24   ar
@<TRIPOS>MOLECULE
*****
 29 31 0 0 0
SMALL
GASTEIGER

@<TRIPOS>ATOM
      1 N         139.6029  143.6271  160.2922 N.ar    1  UNL1       -0.2729
      2 C         139.2856  142.8957  159.0217 C.ar    1  UNL1        0.0860
      3 C         139.5129  143.5608  157.6966 C.ar    1  UNL1        0.0561
      4 C         140.0575  144.9573  157.6419 C.ar    1  UNL1        0.1453
      5 C         140.3748  145.6888  158.9125 C.ar    1  UNL1        0.0980
      6 C         140.1475  145.0237  160.2376 C.ar    1  UNL1        0.2679
      7 O         140.4648  145.7552  161.5082 O.2     1  UNL1       -0.2665
      8 C         138.9210  141.6318  164.2676 C.ar    1  UNL1        0.1387
      9 C         137.7913  142.3396  163.5801 C.ar    1  UNL1        0.0384
     10 C         138.0186  143.0047  162.2549 C.ar    1  UNL1        0.0207
     11 C         139.3756  142.9620  161.6173 C.ar    1  UNL1        0.0671
     12 C         140.5053  142.2543  162.3049 C.ar    1  UNL1        0.0207
     13 C         140.2780  141.5892  163.6300 C.ar    1  UNL1        0.0384
     14 O         138.6937  140.9667  165.5927 O.3     1  UNL1       -0.4740
     15 C         139.1563  139.5571  165.8135 C.3     1  UNL1        0.2226
     16 C         138.6109  138.4471  164.9647 C.3     1  UNL1        0.1200
     17 N         139.2983  138.0748  163.6845 N.3     1  UNL1       -0.2696
     18 C         138.0123  139.0774  161.6620 C.3     1  UNL1        0.0188
     19 C         138.4970  137.8842  162.4309 C.3     1  UNL1        0.0722
     20 C         140.7870  137.8930  163.6580 C.3     1  UNL1        0.0722
     21 C         141.4971  137.7103  162.3493 C.3     1  UNL1        0.0188
     22 O         140.2848  145.6224  156.3168 O.3     1  UNL1       -0.4704
     23 C         139.1426  146.2832  155.6035 C.3     1  UNL1        0.2320
     24 C         139.0941  147.7780  155.4888 C.ar    1  UNL1        0.0212
     25 C         138.5035  148.5966  156.5984 C.ar    1  UNL1       -0.0007
     26 C         138.4549  150.0914  156.4836 C.ar    1  UNL1       -0.0002
     27 C         138.9969  150.7676  155.2592 C.ar    1  UNL1       -0.0000
     28 C         139.5875  149.9490  154.1497 C.ar    1  UNL1       -0.0002
     29 C         139.6360  148.4542  154.2645 C.ar    1  UNL1       -0.0007
@<TRIPOS>BOND
     1    18    19    1
     2    19    17    1
     3    17    20    1
     4    20    21    1
     5    17    16    1
     6    16    15    1
     7    15    14    1
     8    14     8    1
     9     8     9   ar
    10     9    10   ar
    11    10    11   ar
    12    11     1    1
    13     1     2   ar
    14     2     3   ar
    15     3     4   ar
    16     4    22    1
    17    22    23    1
    18    23    24    1
    19    24    25   ar
    20    25    26   ar
    21    26    27   ar
    22    27    28   ar
    23    28    29   ar
    24     4     5   ar
    25     5     6   ar
    26     6     7    2
    27    11    12   ar
    28    12    13   ar
    29    13     8   ar
    30     6     1   ar
    31    29    24   ar
@<TRIPOS>MOLECULE
*****
 29 31 0 0 0
SMALL
GASTEIGER

@<TRIPOS>ATOM
      1 N         142.6221  142.0062  163.6606 N.ar    1  UNL1       -0.2729
      2 C         141.3160  142.1140  162.9310 C.ar    1  UNL1        0.0860
      3 C         141.2354  142.8859  161.6474 C.ar    1  UNL1        0.0561
      4 C         142.4609  143.5500  161.0933 C.ar    1  UNL1        0.1453
      5 C         143.7671  143.4422  161.8229 C.ar    1  UNL1        0.0980
      6 C         143.8477  142.6703  163.1065 C.ar    1  UNL1        0.2679
      7 O         145.1539  142.5625  163.8361 O.2     1  UNL1       -0.2665
      8 C         142.8640  139.6905  167.5114 C.ar    1  UNL1        0.1387
      9 C         142.7021  141.1814  167.5417 C.ar    1  UNL1        0.0384
     10 C         142.6214  141.9533  166.2581 C.ar    1  UNL1        0.0207
     11 C         142.7028  141.2343  164.9442 C.ar    1  UNL1        0.0671
     12 C         142.8647  139.7434  164.9139 C.ar    1  UNL1        0.0207
     13 C         142.9453  138.9715  166.1975 C.ar    1  UNL1        0.0384
     14 O         142.9446  138.9186  168.7950 O.3     1  UNL1       -0.4740
     15 C         142.6514  139.5992  170.0991 C.3     1  UNL1        0.2226
     16 C         141.2425  139.6673  170.6094 C.3     1  UNL1        0.1200
     17 N         140.3458  140.7935  170.1877 N.3     1  UNL1       -0.2696
     18 C         140.3999  143.3316  169.6358 C.3     1  UNL1        0.0188
     19 C         140.6741  142.2024  170.5842 C.3     1  UNL1        0.0722
     20 C         139.1208  140.5107  169.3696 C.3     1  UNL1        0.0722
     21 C         139.2515  139.8653  168.0218 C.3     1  UNL1        0.0188
     22 O         142.3803  144.3219  159.8097 O.3     1  UNL1       -0.4704
     23 C         141.2043  145.2143  159.5438 C.3     1  UNL1        0.2320
     24 C         140.4126  145.0549  158.2797 C.ar    1  UNL1        0.0212
     25 C         139.7578  143.7424  157.9653 C.ar    1  UNL1       -0.0007
     26 C         138.9661  143.5831  156.7013 C.ar    1  UNL1       -0.0002
     27 C         138.8292  144.7362  155.7517 C.ar    1  UNL1       -0.0000
     28 C         139.4839  146.0485  156.0661 C.ar    1  UNL1       -0.0002
     29 C         140.2756  146.2079  157.3301 C.ar    1  UNL1       -0.0007
@<TRIPOS>BOND
     1    18    19    1
     2    19    17    1
     3    17    20    1
     4    20    21    1
     5    17    16    1
     6    16    15    1
     7    15    14    1
     8    14     8    1
     9     8     9   ar
    10     9    10   ar
    11    10    11   ar
    12    11     1    1
    13     1     2   ar
    14     2     3   ar
    15     3     4   ar
    16     4    22    1
    17    22    23    1
    18    23    24    1
    19    24    25   ar
    20    25    26   ar
    21    26    27   ar
    22    27    28   ar
    23    28    29   ar
    24     4     5   ar
    25     5     6   ar
    26     6     7    2
    27    11    12   ar
    28    12    13   ar
    29    13     8   ar
    30     6     1   ar
    31    29    24   ar
@<TRIPOS>MOLECULE
*****
 29 31 0 0 0
SMALL
GASTEIGER

@<TRIPOS>ATOM
      1 N         138.8236  139.4780  163.5193 N.ar    1  UNL1       -0.2729
      2 C         139.5660  138.3879  162.8049 C.ar    1  UNL1        0.0860
      3 C         139.4657  138.2652  161.3133 C.ar    1  UNL1        0.0561
      4 C         138.6230  139.2326  160.5361 C.ar    1  UNL1        0.1453
      5 C         137.8806  140.3227  161.2506 C.ar    1  UNL1        0.0980
      6 C         137.9809  140.4454  162.7422 C.ar    1  UNL1        0.2679
      7 O         137.2384  141.5356  163.4566 O.2     1  UNL1       -0.2665
      8 C         139.1244  139.8462  167.9941 C.ar    1  UNL1        0.1387
      9 C         140.0094  140.6760  167.1122 C.ar    1  UNL1        0.0384
     10 C         139.9092  140.5533  165.6205 C.ar    1  UNL1        0.0207
     11 C         138.9238  139.6008  165.0109 C.ar    1  UNL1        0.0671
     12 C         138.0388  138.7709  165.8929 C.ar    1  UNL1        0.0207
     13 C         138.1390  138.8936  167.3845 C.ar    1  UNL1        0.0384
     14 O         139.2246  139.9689  169.4858 O.3     1  UNL1       -0.4740
     15 C         139.5172  141.3007  170.1107 C.3     1  UNL1        0.2226
     16 C         140.7207  141.4684  170.9902 C.3     1  UNL1        0.1200
     17 N         142.0978  141.3501  170.4074 N.3     1  UNL1       -0.2696
     18 C         142.5375  138.8652  169.7895 C.3     1  UNL1        0.0188
     19 C         142.8835  140.0855  170.5902 C.3     1  UNL1        0.0722
     20 C         142.6892  142.4965  169.6418 C.3     1  UNL1        0.0722
     21 C         143.1202  142.3046  168.2179 C.3     1  UNL1        0.0188
     22 O         138.5227  139.1099  159.0445 O.3     1  UNL1       -0.4704
     23 C         139.7249  139.3754  158.1876 C.3     1  UNL1        0.2320
     24 C         140.4340  140.6941  158.2781 C.ar    1  UNL1        0.0212
     25 C         141.9261  140.7347  158.4270 C.ar    1  UNL1       -0.0007
     26 C         142.6352  142.0534  158.5174 C.ar    1  UNL1       -0.0002
     27 C         141.8522  143.3315  158.4590 C.ar    1  UNL1       -0.0000
     28 C         140.3601  143.2909  158.3101 C.ar    1  UNL1       -0.0002
     29 C         139.6511  141.9722  158.2197 C.ar    1  UNL1       -0.0007
@<TRIPOS>BOND
     1    18    19    1
     2    19    17    1
     3    17    20    1
     4    20    21    1
     5    17    16    1
     6    16    15    1
     7    15    14    1
     8    14     8    1
     9     8     9   ar
    10     9    10   ar
    11    10    11   ar
    12    11     1    1
    13     1     2   ar
    14     2     3   ar
    15     3     4   ar
    16     4    22    1
    17    22    23    1
    18    23    24    1
    19    24    25   ar
    20    25    26   ar
    21    26    27   ar
    22    27    28   ar
    23    28    29   ar
    24     4     5   ar
    25     5     6   ar
    26     6     7    2
    27    11    12   ar
    28    12    13   ar
    29    13     8   ar
    30     6     1   ar
    31    29    24   ar
@<TRIPOS>MOLECULE
*****
 29 31 0 0 0
SMALL
GASTEIGER

@<TRIPOS>ATOM
      1 N         141.5075  144.4036  160.0418 N.ar    1  UNL1       -0.2729
      2 C         142.4145  143.8392  158.9889 C.ar    1  UNL1        0.0860
      3 C         142.2890  144.2979  157.5663 C.ar    1  UNL1        0.0561
      4 C         141.2564  145.3212  157.1966 C.ar    1  UNL1        0.1453
      5 C         140.3494  145.8857  158.2495 C.ar    1  UNL1        0.0980
      6 C         140.4749  145.4269  159.6721 C.ar    1  UNL1        0.2679
      7 O         139.5679  145.9914  160.7250 O.2     1  UNL1       -0.2665
      8 C         141.8842  143.0273  164.3096 C.ar    1  UNL1        0.1387
      9 C         142.7662  144.1262  163.7953 C.ar    1  UNL1        0.0384
     10 C         142.6406  144.5850  162.3727 C.ar    1  UNL1        0.0207
     11 C         141.6331  143.9449  161.4644 C.ar    1  UNL1        0.0671
     12 C         140.7511  142.8460  161.9787 C.ar    1  UNL1        0.0207
     13 C         140.8766  142.3873  163.4013 C.ar    1  UNL1        0.0384
     14 O         142.0097  142.5686  165.7322 O.3     1  UNL1       -0.4740
     15 C         143.0255  141.5271  166.0975 C.3     1  UNL1        0.2226
     16 C         143.0362  140.2073  165.3846 C.3     1  UNL1        0.1200
     17 N         143.8220  140.0459  164.1171 N.3     1  UNL1       -0.2696
     18 C         143.7683  138.3391  162.1590 C.3     1  UNL1        0.0188
     19 C         143.1584  139.4997  162.8877 C.3     1  UNL1        0.0722
     20 C         145.2713  140.4307  164.0790 C.3     1  UNL1        0.0722
     21 C         145.6867  141.7275  163.4498 C.3     1  UNL1        0.0188
     22 O         141.1309  145.7799  155.7740 O.3     1  UNL1       -0.4704
     23 C         139.8067  146.2545  155.2531 C.3     1  UNL1        0.2320
     24 C         139.5600  147.7209  155.0565 C.ar    1  UNL1        0.0212
     25 C         138.7508  148.4866  156.0611 C.ar    1  UNL1       -0.0007
     26 C         138.5040  149.9530  155.8646 C.ar    1  UNL1       -0.0002
     27 C         139.0664  150.6538  154.6634 C.ar    1  UNL1       -0.0000
     28 C         139.8756  149.8882  153.6589 C.ar    1  UNL1       -0.0002
     29 C         140.1223  148.4217  153.8555 C.ar    1  UNL1       -0.0007
@<TRIPOS>BOND
     1    18    19    1
     2    19    17    1
     3    17    20    1
     4    20    21    1
     5    17    16    1
     6    16    15    1
     7    15    14    1
     8    14     8    1
     9     8     9   ar
    10     9    10   ar
    11    10    11   ar
    12    11     1    1
    13     1     2   ar
    14     2     3   ar
    15     3     4   ar
    16     4    22    1
    17    22    23    1
    18    23    24    1
    19    24    25   ar
    20    25    26   ar
    21    26    27   ar
    22    27    28   ar
    23    28    29   ar
    24     4     5   ar
    25     5     6   ar
    26     6     7    2
    27    11    12   ar
    28    12    13   ar
    29    13     8   ar
    30     6     1   ar
    31    29    24   ar
