@<TRIPOS>MOLECULE
*****
 33 36 0 0 0
SMALL
GASTEIGER

@<TRIPOS>ATOM
      1 N         142.9850  137.2396  160.0744 N.am    1  UNL1       -0.2999
      2 C         142.5927  138.0854  158.8993 C.2     1  UNL1        0.2701
      3 O         142.1714  139.5098  159.1077 O.2     1  UNL1       -0.2706
      4 H         143.2616  136.3047  159.9376 H       1  UNL1        0.1496
      5 N         142.9148  138.6369  163.4146 N.3     1  UNL1       -0.2711
      6 C         141.9673  137.8209  162.5861 C.3     1  UNL1        0.0933
      7 C         142.9560  137.8184  161.4579 C.3     1  UNL1        0.1035
      8 C         143.9034  138.6344  162.2865 C.3     1  UNL1        0.0933
      9 C         142.8276  140.3732  167.5652 C.3     1  UNL1        0.0001
     10 C         142.6279  141.2642  166.3752 C.3     1  UNL1        0.0014
     11 C         142.6569  140.6854  164.9916 C.3     1  UNL1        0.0160
     12 C         142.8857  139.2157  164.7981 C.3     1  UNL1        0.0576
     13 C         143.0854  138.3247  165.9882 C.3     1  UNL1        0.0160
     14 C         143.0563  138.9034  167.3716 C.3     1  UNL1        0.0014
     15 C         143.4006  142.3006  169.2104 C.3     1  UNL1        0.0000
     16 C         142.7985  140.9518  168.9488 C.3     1  UNL1        0.0000
     17 C         142.1675  140.1818  170.0708 C.3     1  UNL1        0.0000
     18 C         142.6218  137.5066  157.5158 C.3     1  UNL1        0.2850
     19 N         141.3613  136.9791  156.8968 N.pl3   1  UNL1       -0.2091
     20 H         140.4859  137.2998  157.2132 H       1  UNL1        0.2928
     21 C         141.4346  135.9631  155.7957 C.2     1  UNL1        0.3493
     22 N         140.6542  135.9930  154.5151 N.2     1  UNL1        0.0798
     23 N         141.0385  134.7872  153.7099 N.2     1  UNL1       -0.0381
     24 C         142.0564  134.0121  154.4929 C.2     1  UNL1        0.1169
     25 C         142.7920  132.7385  154.1986 C.3     1  UNL1        0.0759
     26 C         143.7724  132.1916  155.1934 C.2     1  UNL1       -0.0158
     27 C         144.0172  132.9184  156.4825 C.2     1  UNL1        0.0678
     28 C         143.2817  134.1920  156.7768 C.2     1  UNL1        0.0123
     29 C         142.3012  134.7389  155.7820 C.2     1  UNL1        0.1019
     30 C         144.9977  132.3714  157.4773 C.3     1  UNL1        0.4183
     31 F         145.9781  131.8246  158.4721 F       1  UNL1       -0.1659
     32 F         145.4172  131.3245  156.4885 F       1  UNL1       -0.1659
     33 F         144.5783  133.4184  158.4662 F       1  UNL1       -0.1659
@<TRIPOS>BOND
     1    15    16    1
     2    16    17    1
     3     9    16    1
     4     9    10    1
     5    10    11    1
     6    11    12    1
     7    12     5    1
     8     5     6    1
     9     6     7    1
    10     7     1    1
    11     1     2   am
    12     2     3    2
    13     2    18    1
    14    18    19    1
    15    19    21    1
    16    21    22    2
    17    22    23    1
    18    23    24    2
    19    24    25    1
    20    25    26    1
    21    26    27    2
    22    27    30    1
    23    30    31    1
    24    30    32    1
    25    30    33    1
    26    27    28    1
    27    28    29    2
    28     7     8    1
    29    12    13    1
    30    13    14    1
    31    14     9    1
    32     8     5    1
    33    29    21    1
    34    29    24    1
    35     1     4    1
    36    19    20    1
@<TRIPOS>MOLECULE
*****
 33 36 0 0 0
SMALL
GASTEIGER

@<TRIPOS>ATOM
      1 N         143.1006  137.3834  160.2339 N.am    1  UNL1       -0.2999
      2 C         142.5926  138.1932  159.0780 C.2     1  UNL1        0.2701
      3 O         142.0389  139.5676  159.3109 O.2     1  UNL1       -0.2706
      4 H         143.4641  136.4813  160.0811 H       1  UNL1        0.1496
      5 N         142.9901  138.7469  163.5870 N.3     1  UNL1       -0.2711
      6 C         142.0245  138.0044  162.7116 C.3     1  UNL1        0.0933
      7 C         143.0549  137.9482  161.6228 C.3     1  UNL1        0.1035
      8 C         144.0204  138.6907  162.4982 C.3     1  UNL1        0.0933
      9 C         142.8530  140.4413  167.7536 C.3     1  UNL1        0.0001
     10 C         143.0146  138.9640  167.5496 C.3     1  UNL1        0.0014
     11 C         143.0603  138.3993  166.1607 C.3     1  UNL1        0.0160
     12 C         142.9444  139.3117  164.9759 C.3     1  UNL1        0.0576
     13 C         142.7828  140.7889  165.1798 C.3     1  UNL1        0.0160
     14 C         142.7370  141.3537  166.5686 C.3     1  UNL1        0.0014
     15 C         142.9935  142.4787  169.3596 C.3     1  UNL1        0.0000
     16 C         142.8072  141.0062  169.1423 C.3     1  UNL1        0.0000
     17 C         142.5752  140.0987  170.3140 C.3     1  UNL1        0.0000
     18 C         142.6383  137.6284  157.6892 C.3     1  UNL1        0.2850
     19 N         143.2661  136.2881  157.4448 N.pl3   1  UNL1       -0.2091
     20 H         144.1288  136.0649  157.8633 H       1  UNL1        0.2928
     21 C         142.5793  135.2878  156.5629 C.2     1  UNL1        0.3493
     22 N         141.5475  135.5950  155.5184 N.2     1  UNL1        0.0798
     23 N         141.1343  134.3017  154.8807 N.2     1  UNL1       -0.0381
     24 C         141.9106  133.1952  155.5311 C.2     1  UNL1        0.1169
     25 C         141.9197  131.7115  155.3110 C.3     1  UNL1        0.0759
     26 C         142.8218  130.8373  156.1306 C.2     1  UNL1       -0.0158
     27 C         143.7149  131.4467  157.1703 C.2     1  UNL1        0.0678
     28 C         143.7058  132.9304  157.3904 C.2     1  UNL1        0.0123
     29 C         142.8037  133.8047  156.5708 C.2     1  UNL1        0.1019
     30 C         144.6171  130.5724  157.9898 C.3     1  UNL1        0.4183
     31 F         145.5192  129.6980  158.8094 F       1  UNL1       -0.1659
     32 F         145.6461  131.6633  158.0210 F       1  UNL1       -0.1659
     33 F         143.5881  129.4815  157.9587 F       1  UNL1       -0.1659
@<TRIPOS>BOND
     1    15    16    1
     2    16    17    1
     3     9    16    1
     4     9    10    1
     5    10    11    1
     6    11    12    1
     7    12     5    1
     8     5     6    1
     9     6     7    1
    10     7     1    1
    11     1     2   am
    12     2     3    2
    13     2    18    1
    14    18    19    1
    15    19    21    1
    16    21    22    2
    17    22    23    1
    18    23    24    2
    19    24    25    1
    20    25    26    1
    21    26    27    2
    22    27    30    1
    23    30    31    1
    24    30    32    1
    25    30    33    1
    26    27    28    1
    27    28    29    2
    28     7     8    1
    29    12    13    1
    30    13    14    1
    31    14     9    1
    32     8     5    1
    33    29    21    1
    34    29    24    1
    35     1     4    1
    36    19    20    1
@<TRIPOS>MOLECULE
*****
 33 36 0 0 0
SMALL
GASTEIGER

@<TRIPOS>ATOM
      1 N         139.4379  137.8965  160.1950 N.am    1  UNL1       -0.2999
      2 C         140.3694  138.6032  159.2554 C.2     1  UNL1        0.2701
      3 O         141.2701  139.6881  159.7670 O.2     1  UNL1       -0.2706
      4 H         138.8467  137.1845  159.8592 H       1  UNL1        0.1496
      5 N         139.3638  138.8096  163.6986 N.3     1  UNL1       -0.2711
      6 C         140.1390  137.8239  162.8756 C.3     1  UNL1        0.0933
      7 C         139.4072  138.2748  161.6462 C.3     1  UNL1        0.1035
      8 C         138.6320  139.2604  162.4692 C.3     1  UNL1        0.0933
      9 C         139.2715  139.9443  168.0522 C.3     1  UNL1        0.0001
     10 C         140.4285  140.3605  167.1930 C.3     1  UNL1        0.0014
     11 C         140.4592  139.9823  165.7418 C.3     1  UNL1        0.0160
     12 C         139.3330  139.1878  165.1498 C.3     1  UNL1        0.0576
     13 C         138.1761  138.7716  166.0090 C.3     1  UNL1        0.0160
     14 C         138.1453  139.1498  167.4601 C.3     1  UNL1        0.0014
     15 C         138.0550  139.9601  170.3478 C.3     1  UNL1        0.0000
     16 C         139.2407  140.3224  169.5034 C.3     1  UNL1        0.0000
     17 C         140.3954  141.0629  170.1103 C.3     1  UNL1        0.0000
     18 C         140.4001  138.2250  157.8042 C.3     1  UNL1        0.2850
     19 N         141.6219  137.5763  157.2239 N.pl3   1  UNL1       -0.2091
     20 H         142.5160  137.8352  157.5445 H       1  UNL1        0.2928
     21 C         141.4813  136.5333  156.1551 C.2     1  UNL1        0.3493
     22 N         140.5518  136.5953  154.9795 N.2     1  UNL1        0.0798
     23 N         140.7416  135.3454  154.1721 N.2     1  UNL1       -0.0381
     24 C         141.7884  134.5110  154.8488 C.2     1  UNL1        0.1169
     25 C         142.3844  133.1775  154.5073 C.3     1  UNL1        0.0759
     26 C         143.4375  132.5782  155.3914 C.2     1  UNL1       -0.0158
     27 C         143.8946  133.3123  156.6170 C.2     1  UNL1        0.0678
     28 C         143.2987  134.6458  156.9585 C.2     1  UNL1        0.0123
     29 C         142.2456  135.2451  156.0744 C.2     1  UNL1        0.1019
     30 C         144.9478  132.7129  157.5011 C.3     1  UNL1        0.4183
     31 F         146.0009  132.1136  158.3852 F       1  UNL1       -0.1659
     32 F         145.3996  131.8378  156.3698 F       1  UNL1       -0.1659
     33 F         144.4960  133.5880  158.6325 F       1  UNL1       -0.1659
@<TRIPOS>BOND
     1    15    16    1
     2    16    17    1
     3     9    16    1
     4     9    10    1
     5    10    11    1
     6    11    12    1
     7    12     5    1
     8     5     6    1
     9     6     7    1
    10     7     1    1
    11     1     2   am
    12     2     3    2
    13     2    18    1
    14    18    19    1
    15    19    21    1
    16    21    22    2
    17    22    23    1
    18    23    24    2
    19    24    25    1
    20    25    26    1
    21    26    27    2
    22    27    30    1
    23    30    31    1
    24    30    32    1
    25    30    33    1
    26    27    28    1
    27    28    29    2
    28     7     8    1
    29    12    13    1
    30    13    14    1
    31    14     9    1
    32     8     5    1
    33    29    21    1
    34    29    24    1
    35     1     4    1
    36    19    20    1
@<TRIPOS>MOLECULE
*****
 33 36 0 0 0
SMALL
GASTEIGER

@<TRIPOS>ATOM
      1 N         143.2110  137.0727  159.3201 N.am    1  UNL1       -0.2999
      2 C         142.5429  137.7512  158.1611 C.2     1  UNL1        0.2701
      3 O         141.7729  139.0202  158.3771 O.2     1  UNL1       -0.2706
      4 H         143.7163  136.2398  159.1782 H       1  UNL1        0.1496
      5 N         142.9648  138.4985  162.6398 N.3     1  UNL1       -0.2711
      6 C         144.0889  138.2145  161.6881 C.3     1  UNL1        0.0933
      7 C         143.1090  137.6633  160.6951 C.3     1  UNL1        0.1035
      8 C         141.9849  137.9472  161.6469 C.3     1  UNL1        0.0933
      9 C         142.6588  140.2701  166.7651 C.3     1  UNL1        0.0001
     10 C         142.5054  141.1480  165.5585 C.3     1  UNL1        0.0014
     11 C         142.6074  140.5575  164.1835 C.3     1  UNL1        0.0160
     12 C         142.8628  139.0890  164.0149 C.3     1  UNL1        0.0576
     13 C         143.0163  138.2111  165.2214 C.3     1  UNL1        0.0160
     14 C         142.9143  138.8016  166.5965 C.3     1  UNL1        0.0014
     15 C         143.0021  142.2719  168.3853 C.3     1  UNL1        0.0000
     16 C         142.5569  140.8605  168.1402 C.3     1  UNL1        0.0000
     17 C         142.0097  140.0398  169.2702 C.3     1  UNL1        0.0000
     18 C         142.6449  137.1607  156.7860 C.3     1  UNL1        0.2850
     19 N         141.9875  135.8467  156.4833 N.pl3   1  UNL1       -0.2091
     20 H         141.0809  135.8267  156.1000 H       1  UNL1        0.2928
     21 C         142.7113  134.5635  156.7648 C.2     1  UNL1        0.3493
     22 N         143.8888  134.3976  157.6791 N.2     1  UNL1        0.0798
     23 N         144.2899  132.9524  157.6608 N.2     1  UNL1       -0.0381
     24 C         143.3603  132.2250  156.7352 C.2     1  UNL1        0.1169
     25 C         143.2761  130.7846  156.3251 C.3     1  UNL1        0.0759
     26 C         142.2163  130.3400  155.3612 C.2     1  UNL1       -0.0158
     27 C         141.2407  131.3357  154.8075 C.2     1  UNL1        0.0678
     28 C         141.3248  132.7761  155.2176 C.2     1  UNL1        0.0123
     29 C         142.3846  133.2207  156.1815 C.2     1  UNL1        0.1019
     30 C         140.1808  130.8910  153.8436 C.3     1  UNL1        0.4183
     31 F         139.1210  130.4464  152.8797 F       1  UNL1       -0.1659
     32 F         141.1842  130.9158  152.7288 F       1  UNL1       -0.1659
     33 F         139.1775  130.8662  154.9583 F       1  UNL1       -0.1659
@<TRIPOS>BOND
     1    15    16    1
     2    16    17    1
     3     9    16    1
     4     9    10    1
     5    10    11    1
     6    11    12    1
     7    12     5    1
     8     5     6    1
     9     6     7    1
    10     7     1    1
    11     1     2   am
    12     2     3    2
    13     2    18    1
    14    18    19    1
    15    19    21    1
    16    21    22    2
    17    22    23    1
    18    23    24    2
    19    24    25    1
    20    25    26    1
    21    26    27    2
    22    27    30    1
    23    30    31    1
    24    30    32    1
    25    30    33    1
    26    27    28    1
    27    28    29    2
    28     7     8    1
    29    12    13    1
    30    13    14    1
    31    14     9    1
    32     8     5    1
    33    29    21    1
    34    29    24    1
    35     1     4    1
    36    19    20    1
@<TRIPOS>MOLECULE
*****
 33 36 0 0 0
SMALL
GASTEIGER

@<TRIPOS>ATOM
      1 N         139.9423  141.6669  160.1986 N.am    1  UNL1       -0.2999
      2 C         138.5520  141.7352  160.7574 C.2     1  UNL1        0.2701
      3 O         137.5786  140.6270  160.4846 O.2     1  UNL1       -0.2706
      4 H         140.5811  142.3943  160.3777 H       1  UNL1        0.1496
      5 N         140.9489  138.8261  158.1909 N.3     1  UNL1       -0.2711
      6 C         140.2171  139.0019  159.4884 C.3     1  UNL1        0.0933
      7 C         140.3593  140.4902  159.3670 C.3     1  UNL1        0.1035
      8 C         141.0911  140.3144  158.0695 C.3     1  UNL1        0.0933
      9 C         142.1999  135.2962  155.6959 C.3     1  UNL1        0.0001
     10 C         143.1171  135.8271  156.7575 C.3     1  UNL1        0.0014
     11 C         142.7001  137.0037  157.5891 C.3     1  UNL1        0.0160
     12 C         141.3659  137.6495  157.3592 C.3     1  UNL1        0.0576
     13 C         140.4487  137.1187  156.2977 C.3     1  UNL1        0.0160
     14 C         140.8657  135.9421  155.4660 C.3     1  UNL1        0.0014
     15 C         143.5593  133.0983  155.4288 C.3     1  UNL1        0.0000
     16 C         142.6168  134.1196  154.8642 C.3     1  UNL1        0.0000
     17 C         142.0912  133.9642  153.4679 C.3     1  UNL1        0.0000
     18 C         138.1350  142.9118  161.5891 C.3     1  UNL1        0.2850
     19 N         137.6004  142.6993  162.9745 N.pl3   1  UNL1       -0.2091
     20 H         136.6398  142.5322  163.1112 H       1  UNL1        0.2928
     21 C         138.5292  142.7415  164.1515 C.2     1  UNL1        0.3493
     22 N         139.3837  143.9050  164.5591 N.2     1  UNL1        0.0798
     23 N         140.1493  143.5100  165.7871 N.2     1  UNL1       -0.0381
     24 C         139.7680  142.1024  166.1384 C.2     1  UNL1        0.1169
     25 C         140.2032  141.1919  167.2481 C.3     1  UNL1        0.0759
     26 C         139.6371  139.8064  167.3469 C.2     1  UNL1       -0.0158
     27 C         138.6359  139.3314  166.3360 C.2     1  UNL1        0.0678
     28 C         138.2007  140.2419  165.2263 C.2     1  UNL1        0.0123
     29 C         138.7668  141.6274  165.1275 C.2     1  UNL1        0.1019
     30 C         138.0698  137.9457  166.4349 C.3     1  UNL1        0.4183
     31 F         137.5038  136.5602  166.5337 F       1  UNL1       -0.1659
     32 F         137.0940  138.4183  167.4714 F       1  UNL1       -0.1659
     33 F         139.0456  137.4732  165.3983 F       1  UNL1       -0.1659
@<TRIPOS>BOND
     1    15    16    1
     2    16    17    1
     3     9    16    1
     4     9    10    1
     5    10    11    1
     6    11    12    1
     7    12     5    1
     8     5     6    1
     9     6     7    1
    10     7     1    1
    11     1     2   am
    12     2     3    2
    13     2    18    1
    14    18    19    1
    15    19    21    1
    16    21    22    2
    17    22    23    1
    18    23    24    2
    19    24    25    1
    20    25    26    1
    21    26    27    2
    22    27    30    1
    23    30    31    1
    24    30    32    1
    25    30    33    1
    26    27    28    1
    27    28    29    2
    28     7     8    1
    29    12    13    1
    30    13    14    1
    31    14     9    1
    32     8     5    1
    33    29    21    1
    34    29    24    1
    35     1     4    1
    36    19    20    1
@<TRIPOS>MOLECULE
*****
 33 36 0 0 0
SMALL
GASTEIGER

@<TRIPOS>ATOM
      1 N         141.4950  145.4434  160.5265 N.am    1  UNL1       -0.2999
      2 C         140.3946  145.1075  159.5641 C.2     1  UNL1        0.2701
      3 O         139.3534  144.0949  159.9389 O.2     1  UNL1       -0.2706
      4 H         142.1784  146.1079  160.2805 H       1  UNL1        0.1496
      5 N         141.6377  143.8096  163.7553 N.3     1  UNL1       -0.2711
      6 C         141.3507  145.2045  163.2841 C.3     1  UNL1        0.0933
      7 C         141.5541  144.7666  161.8639 C.3     1  UNL1        0.1035
      8 C         141.8411  143.3718  162.3351 C.3     1  UNL1        0.0933
      9 C         141.8150  141.7794  167.7674 C.3     1  UNL1        0.0001
     10 C         143.0780  142.0348  166.9996 C.3     1  UNL1        0.0014
     11 C         143.0189  142.7115  165.6622 C.3     1  UNL1        0.0160
     12 C         141.6968  143.1329  165.0926 C.3     1  UNL1        0.0576
     13 C         140.4337  142.8775  165.8604 C.3     1  UNL1        0.0160
     14 C         140.4928  142.2008  167.1977 C.3     1  UNL1        0.0014
     15 C         143.0998  141.2354  169.9590 C.3     1  UNL1        0.0000
     16 C         141.8739  141.1027  169.1047 C.3     1  UNL1        0.0000
     17 C         140.7072  140.2932  169.5879 C.3     1  UNL1        0.0000
     18 C         140.3355  145.7842  158.2267 C.3     1  UNL1        0.2850
     19 N         139.8774  145.0208  157.0194 N.pl3   1  UNL1       -0.2091
     20 H         139.2447  144.2733  157.1205 H       1  UNL1        0.2928
     21 C         140.3832  145.3964  155.6581 C.2     1  UNL1        0.3493
     22 N         141.1580  144.5089  154.7297 N.2     1  UNL1        0.0798
     23 N         141.4566  145.2895  153.4840 N.2     1  UNL1       -0.0381
     24 C         140.8664  146.6593  153.6427 C.2     1  UNL1        0.1169
     25 C         140.8473  147.8550  152.7372 C.3     1  UNL1        0.0759
     26 C         140.1649  149.1168  153.1754 C.2     1  UNL1       -0.0158
     27 C         139.5014  149.1829  154.5191 C.2     1  UNL1        0.0678
     28 C         139.5205  147.9872  155.4246 C.2     1  UNL1        0.0123
     29 C         140.2030  146.7254  154.9863 C.2     1  UNL1        0.1019
     30 C         138.8189  150.4448  154.9573 C.3     1  UNL1        0.4183
     31 F         138.1365  151.7066  155.3954 F       1  UNL1       -0.1659
     32 F         138.5611  149.8375  156.3044 F       1  UNL1       -0.1659
     33 F         139.0768  151.0520  153.6102 F       1  UNL1       -0.1659
@<TRIPOS>BOND
     1    15    16    1
     2    16    17    1
     3     9    16    1
     4     9    10    1
     5    10    11    1
     6    11    12    1
     7    12     5    1
     8     5     6    1
     9     6     7    1
    10     7     1    1
    11     1     2   am
    12     2     3    2
    13     2    18    1
    14    18    19    1
    15    19    21    1
    16    21    22    2
    17    22    23    1
    18    23    24    2
    19    24    25    1
    20    25    26    1
    21    26    27    2
    22    27    30    1
    23    30    31    1
    24    30    32    1
    25    30    33    1
    26    27    28    1
    27    28    29    2
    28     7     8    1
    29    12    13    1
    30    13    14    1
    31    14     9    1
    32     8     5    1
    33    29    21    1
    34    29    24    1
    35     1     4    1
    36    19    20    1
@<TRIPOS>MOLECULE
*****
 33 36 0 0 0
SMALL
GASTEIGER

@<TRIPOS>ATOM
      1 N         142.9703  137.6048  161.6569 N.am    1  UNL1       -0.2999
      2 C         142.6358  138.1770  160.3114 C.2     1  UNL1        0.2701
      3 O         142.1195  139.5810  160.2006 O.2     1  UNL1       -0.2706
      4 H         143.3092  136.6833  161.7296 H       1  UNL1        0.1496
      5 N         142.5310  139.6130  164.6383 N.3     1  UNL1       -0.2711
      6 C         141.6432  139.1848  163.5076 C.3     1  UNL1        0.0933
      7 C         142.7884  138.4366  162.8919 C.3     1  UNL1        0.1035
      8 C         143.6760  138.8648  164.0226 C.3     1  UNL1        0.0933
      9 C         141.9853  142.1084  168.3431 C.3     1  UNL1        0.0001
     10 C         141.2530  140.8070  168.2008 C.3     1  UNL1        0.0014
     11 C         141.4349  139.9752  166.9658 C.3     1  UNL1        0.0160
     12 C         142.3491  140.4448  165.8732 C.3     1  UNL1        0.0576
     13 C         143.0813  141.7461  166.0155 C.3     1  UNL1        0.0160
     14 C         142.8994  142.5779  167.2504 C.3     1  UNL1        0.0014
     15 C         140.5078  143.6582  169.8145 C.3     1  UNL1        0.0000
     16 C         141.8034  142.9402  169.5779 C.3     1  UNL1        0.0000
     17 C         142.9171  143.0542  170.5762 C.3     1  UNL1        0.0000
     18 C         142.8177  137.3453  159.0764 C.3     1  UNL1        0.2850
     19 N         142.4034  137.8862  157.7400 N.pl3   1  UNL1       -0.2091
     20 H         142.5244  138.8418  157.5368 H       1  UNL1        0.2928
     21 C         141.8047  136.9710  156.7133 C.2     1  UNL1        0.3493
     22 N         140.6489  137.2922  155.8129 N.2     1  UNL1        0.0798
     23 N         140.3866  136.0937  154.9500 N.2     1  UNL1       -0.0381
     24 C         141.3804  135.0317  155.3170 C.2     1  UNL1        0.1169
     25 C         141.6005  133.6411  154.7997 C.3     1  UNL1        0.0759
     26 C         142.6970  132.7927  155.3722 C.2     1  UNL1       -0.0158
     27 C         143.5735  133.3350  156.4621 C.2     1  UNL1        0.0678
     28 C         143.3534  134.7256  156.9794 C.2     1  UNL1        0.0123
     29 C         142.2569  135.5740  156.4069 C.2     1  UNL1        0.1019
     30 C         144.6701  132.4865  157.0346 C.3     1  UNL1        0.4183
     31 F         145.7666  131.6381  157.6071 F       1  UNL1       -0.1659
     32 F         144.7928  131.7626  155.7267 F       1  UNL1       -0.1659
     33 F         144.5473  133.2105  158.3425 F       1  UNL1       -0.1659
@<TRIPOS>BOND
     1    15    16    1
     2    16    17    1
     3     9    16    1
     4     9    10    1
     5    10    11    1
     6    11    12    1
     7    12     5    1
     8     5     6    1
     9     6     7    1
    10     7     1    1
    11     1     2   am
    12     2     3    2
    13     2    18    1
    14    18    19    1
    15    19    21    1
    16    21    22    2
    17    22    23    1
    18    23    24    2
    19    24    25    1
    20    25    26    1
    21    26    27    2
    22    27    30    1
    23    30    31    1
    24    30    32    1
    25    30    33    1
    26    27    28    1
    27    28    29    2
    28     7     8    1
    29    12    13    1
    30    13    14    1
    31    14     9    1
    32     8     5    1
    33    29    21    1
    34    29    24    1
    35     1     4    1
    36    19    20    1
@<TRIPOS>MOLECULE
*****
 33 36 0 0 0
SMALL
GASTEIGER

@<TRIPOS>ATOM
      1 N         139.8929  140.6530  156.9756 N.am    1  UNL1       -0.2999
      2 C         140.5153  141.5692  157.9870 C.2     1  UNL1        0.2701
      3 O         141.7472  141.1418  158.7284 O.2     1  UNL1       -0.2706
      4 H         139.0844  140.9336  156.4890 H       1  UNL1        0.1496
      5 N         141.3646  137.4090  156.3236 N.3     1  UNL1       -0.2711
      6 C         140.7237  138.0636  157.5114 C.3     1  UNL1        0.0933
      7 C         140.5025  139.3093  156.7055 C.3     1  UNL1        0.1035
      8 C         141.1433  138.6547  155.5178 C.3     1  UNL1        0.0933
      9 C         143.1933  133.3780  155.5134 C.3     1  UNL1        0.0001
     10 C         143.7792  134.2690  156.5682 C.3     1  UNL1        0.0014
     11 C         143.1696  135.6127  156.8383 C.3     1  UNL1        0.0160
     12 C         141.9741  136.0653  156.0535 C.3     1  UNL1        0.0576
     13 C         141.3882  135.1743  154.9987 C.3     1  UNL1        0.0160
     14 C         141.9978  133.8307  154.7286 C.3     1  UNL1        0.0014
     15 C         144.8740  131.5011  156.1478 C.3     1  UNL1        0.0000
     16 C         143.8028  132.0343  155.2432 C.3     1  UNL1        0.0000
     17 C         143.3412  131.2238  154.0685 C.3     1  UNL1        0.0000
     18 C         139.9058  142.9129  158.2571 C.3     1  UNL1        0.2850
     19 N         138.6268  143.0137  159.0345 N.pl3   1  UNL1       -0.2091
     20 H         138.0272  143.7826  158.8982 H       1  UNL1        0.2928
     21 C         138.2613  141.9429  160.0193 C.2     1  UNL1        0.3493
     22 N         137.9122  140.5223  159.6880 N.2     1  UNL1        0.0798
     23 N         137.6159  139.8062  160.9724 N.2     1  UNL1       -0.0381
     24 C         137.7819  140.7844  162.0974 C.2     1  UNL1        0.1169
     25 C         137.6214  140.6432  163.5821 C.3     1  UNL1        0.0759
     26 C         137.8597  141.8225  164.4777 C.2     1  UNL1       -0.0158
     27 C         138.2586  143.1431  163.8887 C.2     1  UNL1        0.0678
     28 C         138.4191  143.2843  162.4040 C.2     1  UNL1        0.0123
     29 C         138.1808  142.1050  161.5084 C.2     1  UNL1        0.1019
     30 C         138.4970  144.3225  164.7844 C.3     1  UNL1        0.4183
     31 F         138.7353  145.5019  165.6801 F       1  UNL1       -0.1659
     32 F         139.9617  144.2687  164.4656 F       1  UNL1       -0.1659
     33 F         137.0323  144.3764  165.1032 F       1  UNL1       -0.1659
@<TRIPOS>BOND
     1    15    16    1
     2    16    17    1
     3     9    16    1
     4     9    10    1
     5    10    11    1
     6    11    12    1
     7    12     5    1
     8     5     6    1
     9     6     7    1
    10     7     1    1
    11     1     2   am
    12     2     3    2
    13     2    18    1
    14    18    19    1
    15    19    21    1
    16    21    22    2
    17    22    23    1
    18    23    24    2
    19    24    25    1
    20    25    26    1
    21    26    27    2
    22    27    30    1
    23    30    31    1
    24    30    32    1
    25    30    33    1
    26    27    28    1
    27    28    29    2
    28     7     8    1
    29    12    13    1
    30    13    14    1
    31    14     9    1
    32     8     5    1
    33    29    21    1
    34    29    24    1
    35     1     4    1
    36    19    20    1
@<TRIPOS>MOLECULE
*****
 33 36 0 0 0
SMALL
GASTEIGER

@<TRIPOS>ATOM
      1 N         143.0088  140.1569  157.7424 N.am    1  UNL1       -0.2999
      2 C         143.6468  140.5345  159.0463 C.2     1  UNL1        0.2701
      3 O         144.1293  139.4663  159.9824 O.2     1  UNL1       -0.2706
      4 H         142.6922  140.8581  157.1280 H       1  UNL1        0.1496
      5 N         142.6335  136.6663  156.8541 N.3     1  UNL1       -0.2711
      6 C         142.1723  137.5264  157.9932 C.3     1  UNL1        0.0933
      7 C         142.8534  138.7111  157.3744 C.3     1  UNL1        0.1035
      8 C         143.3146  137.8510  156.2354 C.3     1  UNL1        0.0933
      9 C         142.1672  132.3288  155.7502 C.3     1  UNL1        0.0001
     10 C         143.1081  132.7262  156.8487 C.3     1  UNL1        0.0014
     11 C         143.2636  134.1720  157.2167 C.3     1  UNL1        0.0160
     12 C         142.4780  135.2205  156.4861 C.3     1  UNL1        0.0576
     13 C         141.5371  134.8231  155.3877 C.3     1  UNL1        0.0160
     14 C         141.3816  133.3774  155.0197 C.3     1  UNL1        0.0014
     15 C         143.1678  129.9404  155.5400 C.3     1  UNL1        0.0000
     16 C         142.0116  130.8831  155.3822 C.3     1  UNL1        0.0000
     17 C         140.7001  130.3798  154.8563 C.3     1  UNL1        0.0000
     18 C         143.8023  141.9803  159.4143 C.3     1  UNL1        0.2850
     19 N         142.9768  143.0236  158.7212 N.pl3   1  UNL1       -0.2091
     20 H         143.0876  143.1772  157.7551 H       1  UNL1        0.2928
     21 C         141.9825  143.8328  159.5001 C.2     1  UNL1        0.3493
     22 N         140.7100  144.4192  158.9645 N.2     1  UNL1        0.0798
     23 N         140.0274  145.1465  160.0848 N.2     1  UNL1       -0.0381
     24 C         140.8779  145.0096  161.3127 C.2     1  UNL1        0.1169
     25 C         140.7082  145.5193  162.7132 C.3     1  UNL1        0.0759
     26 C         141.7469  145.2171  163.7523 C.2     1  UNL1       -0.0158
     27 C         142.9553  144.4052  163.3909 C.2     1  UNL1        0.0678
     28 C         143.1250  143.8955  161.9905 C.2     1  UNL1        0.0123
     29 C         142.0863  144.1977  160.9514 C.2     1  UNL1        0.1019
     30 C         143.9940  144.1030  164.4301 C.3     1  UNL1        0.4183
     31 F         145.0327  143.8008  165.4692 F       1  UNL1       -0.1659
     32 F         144.0925  145.5637  164.7565 F       1  UNL1       -0.1659
     33 F         143.8955  142.6423  164.1037 F       1  UNL1       -0.1659
@<TRIPOS>BOND
     1    15    16    1
     2    16    17    1
     3     9    16    1
     4     9    10    1
     5    10    11    1
     6    11    12    1
     7    12     5    1
     8     5     6    1
     9     6     7    1
    10     7     1    1
    11     1     2   am
    12     2     3    2
    13     2    18    1
    14    18    19    1
    15    19    21    1
    16    21    22    2
    17    22    23    1
    18    23    24    2
    19    24    25    1
    20    25    26    1
    21    26    27    2
    22    27    30    1
    23    30    31    1
    24    30    32    1
    25    30    33    1
    26    27    28    1
    27    28    29    2
    28     7     8    1
    29    12    13    1
    30    13    14    1
    31    14     9    1
    32     8     5    1
    33    29    21    1
    34    29    24    1
    35     1     4    1
    36    19    20    1
