@<TRIPOS>MOLECULE
*****
 34 37 0 0 0
SMALL
GASTEIGER

@<TRIPOS>ATOM
      1 C         140.5005  144.7528  157.4548 C.ar    1  UNL1        0.1169
      2 C         141.6125  145.3190  158.2873 C.ar    1  UNL1        0.1389
      3 N         142.5748  146.3000  157.6861 N.pl3   1  UNL1       -0.3420
      4 N         141.7620  144.9042  159.7210 N.ar    1  UNL1       -0.1998
      5 C         140.7996  143.9232  160.3223 C.ar    1  UNL1        0.2046
      6 N         139.6877  143.3570  159.4898 N.ar    1  UNL1       -0.2662
      7 C         138.7254  142.3760  160.0910 C.3     1  UNL1        0.1363
      8 C         139.5382  143.7718  158.0560 C.ar    1  UNL1        0.2716
      9 O         138.4263  143.2056  157.2235 O.2     1  UNL1       -0.2663
     10 H         142.4767  146.5722  156.7451 H       1  UNL1        0.1437
     11 H         143.3046  146.6716  158.2325 H       1  UNL1        0.1437
     12 N         140.9492  143.5084  161.7560 N.pl3   1  UNL1       -0.2794
     13 C         140.0758  144.1227  162.8095 C.3     1  UNL1        0.0937
     14 C         140.2254  143.7079  164.2432 C.3     1  UNL1        0.0254
     15 C         141.2484  142.6788  164.6234 C.3     1  UNL1        0.0460
     16 C         142.1218  142.0646  163.5700 C.3     1  UNL1        0.0254
     17 C         141.9722  142.4794  162.1363 C.3     1  UNL1        0.0937
     18 C         142.2221  141.6674  165.1517 C.3     1  UNL1        0.1434
     19 O         142.0260  141.5661  166.6354 O.3     1  UNL1       -0.3548
     20 C         140.9311  142.5149  167.0241 C.3     1  UNL1        0.1294
     21 C         140.4086  142.7370  168.4125 C.3     1  UNL1        0.0335
     22 C         140.4505  143.2026  165.7807 C.3     1  UNL1        0.0807
     23 N         139.3631  144.2331  165.7073 N.3     1  UNL1       -0.3202
     24 H         139.2423  144.5316  164.7395 H       1  UNL1        0.1189
     25 H         139.6169  145.0368  166.2818 H       1  UNL1        0.1189
     26 S         140.3510  145.1676  156.0211 S.3     1  UNL1       -0.0785
     27 C         140.2457  149.1829  152.7248 C.3     1  UNL1        0.0530
     28 C         139.8581  148.5694  154.0376 C.ar    1  UNL1        0.0704
     29 N         139.0302  149.3501  155.0149 N.ar    1  UNL1       -0.2473
     30 C         138.6426  148.7366  156.3277 C.ar    1  UNL1        0.0990
     31 C         139.0829  147.3423  156.6631 C.ar    1  UNL1        0.0280
     32 C         139.9108  146.5617  155.6857 C.ar    1  UNL1        0.0429
     33 C         140.2984  147.1753  154.3729 C.ar    1  UNL1        0.0772
     34 CL        141.1262  146.3947  153.3955 Cl      1  UNL1       -0.0805
@<TRIPOS>BOND
     1    27    28    1
     2    28    29   ar
     3    29    30   ar
     4    30    31   ar
     5    31    32   ar
     6    32    26    1
     7    26     1    1
     8     1     2   ar
     9     2     3    1
    10     2     4   ar
    11     4     5   ar
    12     5    12    1
    13    12    13    1
    14    13    14    1
    15    14    15    1
    16    15    16    1
    17    16    17    1
    18    15    18    1
    19    18    19    1
    20    19    20    1
    21    20    21    1
    22    20    22    1
    23    22    23    1
    24     5     6   ar
    25     6     7    1
    26     6     8   ar
    27     8     9    2
    28    32    33   ar
    29    33    34    1
    30    33    28   ar
    31     8     1   ar
    32    17    12    1
    33    22    15    1
    34     3    10    1
    35     3    11    1
    36    23    24    1
    37    23    25    1
@<TRIPOS>MOLECULE
*****
 34 37 0 0 0
SMALL
GASTEIGER

@<TRIPOS>ATOM
      1 C         141.4234  137.6046  156.5328 C.ar    1  UNL1        0.1169
      2 C         139.9746  137.5591  156.9188 C.ar    1  UNL1        0.1389
      3 N         138.9977  136.7934  156.0765 N.pl3   1  UNL1       -0.3420
      4 N         139.5027  138.2793  158.1470 N.ar    1  UNL1       -0.1998
      5 C         140.4795  139.0450  158.9893 C.ar    1  UNL1        0.2046
      6 N         141.9283  139.0905  158.6033 N.ar    1  UNL1       -0.2662
      7 C         142.9052  139.8563  159.4456 C.3     1  UNL1        0.1363
      8 C         142.4003  138.3703  157.3750 C.ar    1  UNL1        0.2716
      9 O         143.8490  138.4158  156.9891 O.2     1  UNL1       -0.2663
     10 H         139.3074  136.3207  155.2704 H       1  UNL1        0.1437
     11 H         138.0468  136.7635  156.3298 H       1  UNL1        0.1437
     12 N         140.0076  139.7653  160.2175 N.pl3   1  UNL1       -0.2794
     13 C         139.6158  141.2109  160.1353 C.3     1  UNL1        0.0937
     14 C         139.1439  141.9310  161.3635 C.3     1  UNL1        0.0254
     15 C         139.0637  141.2056  162.6740 C.3     1  UNL1        0.0460
     16 C         139.4555  139.7601  162.7562 C.3     1  UNL1        0.0254
     17 C         139.9274  139.0399  161.5280 C.3     1  UNL1        0.0937
     18 C         138.9319  140.6149  164.0465 C.3     1  UNL1        0.1434
     19 O         138.4274  141.6872  164.9662 O.3     1  UNL1       -0.3548
     20 C         138.2475  142.9407  164.1620 C.3     1  UNL1        0.1294
     21 C         137.7600  144.2600  164.6830 C.3     1  UNL1        0.0335
     22 C         138.6408  142.6431  162.7455 C.3     1  UNL1        0.0807
     23 N         138.6155  143.6125  161.6012 N.3     1  UNL1       -0.3202
     24 H         138.9332  143.1448  160.7522 H       1  UNL1        0.1189
     25 H         139.2323  144.3983  161.8076 H       1  UNL1        0.1189
     26 S         141.8953  136.8843  155.3046 S.3     1  UNL1       -0.0785
     27 C         142.5541  132.2588  153.0309 C.3     1  UNL1        0.0530
     28 C         142.6232  133.1279  154.2515 C.ar    1  UNL1        0.0704
     29 N         143.0907  132.5533  155.5558 N.ar    1  UNL1       -0.2473
     30 C         143.1598  133.4224  156.7764 C.ar    1  UNL1        0.0990
     31 C         142.7613  134.8662  156.6927 C.ar    1  UNL1        0.0280
     32 C         142.2937  135.4407  155.3883 C.ar    1  UNL1        0.0429
     33 C         142.2247  134.5715  154.1677 C.ar    1  UNL1        0.0772
     34 CL        141.7572  135.1461  152.8633 Cl      1  UNL1       -0.0805
@<TRIPOS>BOND
     1    27    28    1
     2    28    29   ar
     3    29    30   ar
     4    30    31   ar
     5    31    32   ar
     6    32    26    1
     7    26     1    1
     8     1     2   ar
     9     2     3    1
    10     2     4   ar
    11     4     5   ar
    12     5    12    1
    13    12    13    1
    14    13    14    1
    15    14    15    1
    16    15    16    1
    17    16    17    1
    18    15    18    1
    19    18    19    1
    20    19    20    1
    21    20    21    1
    22    20    22    1
    23    22    23    1
    24     5     6   ar
    25     6     7    1
    26     6     8   ar
    27     8     9    2
    28    32    33   ar
    29    33    34    1
    30    33    28   ar
    31     8     1   ar
    32    17    12    1
    33    22    15    1
    34     3    10    1
    35     3    11    1
    36    23    24    1
    37    23    25    1
@<TRIPOS>MOLECULE
*****
 34 37 0 0 0
SMALL
GASTEIGER

@<TRIPOS>ATOM
      1 C         140.9510  144.2501  160.7264 C.ar    1  UNL1        0.1169
      2 C         141.7456  143.0290  161.0836 C.ar    1  UNL1        0.1389
      3 N         142.7111  142.4466  160.0944 N.pl3   1  UNL1       -0.3420
      4 N         141.5747  142.3904  162.4300 N.ar    1  UNL1       -0.1998
      5 C         140.6092  142.9728  163.4193 C.ar    1  UNL1        0.2046
      6 N         139.8146  144.1939  163.0621 N.ar    1  UNL1       -0.2662
      7 C         138.8491  144.7763  164.0513 C.3     1  UNL1        0.1363
      8 C         139.9855  144.8326  161.7156 C.ar    1  UNL1        0.2716
      9 O         139.1910  146.0536  161.3584 O.2     1  UNL1       -0.2663
     10 H         142.8233  142.8657  159.2107 H       1  UNL1        0.1437
     11 H         143.2326  141.6451  160.3288 H       1  UNL1        0.1437
     12 N         140.4383  142.3341  164.7657 N.pl3   1  UNL1       -0.2794
     13 C         141.1801  142.8749  165.9520 C.3     1  UNL1        0.0937
     14 C         141.0091  142.2363  167.2984 C.3     1  UNL1        0.0254
     15 C         140.0964  141.0567  167.4585 C.3     1  UNL1        0.0460
     16 C         139.3546  140.5159  166.2723 C.3     1  UNL1        0.0254
     17 C         139.5255  141.1546  164.9259 C.3     1  UNL1        0.0937
     18 C         139.2231  139.8778  167.7707 C.3     1  UNL1        0.1434
     19 O         139.3557  139.5772  169.2343 O.3     1  UNL1       -0.3548
     20 C         140.3110  140.5705  169.8267 C.3     1  UNL1        0.1294
     21 C         140.7342  140.6376  171.2642 C.3     1  UNL1        0.0335
     22 C         140.7688  141.4849  168.7293 C.3     1  UNL1        0.0807
     23 N         141.7300  142.6268  168.8766 N.3     1  UNL1       -0.3202
     24 H         141.8629  143.0783  167.9716 H       1  UNL1        0.1189
     25 H         142.6255  142.2758  169.2161 H       1  UNL1        0.1189
     26 S         141.1219  144.8888  159.3799 S.3     1  UNL1       -0.0785
     27 C         139.6635  145.3770  154.4167 C.3     1  UNL1        0.0530
     28 C         139.5395  144.6929  155.7457 C.ar    1  UNL1        0.0704
     29 N         138.5622  143.5687  155.9223 N.ar    1  UNL1       -0.2473
     30 C         138.4381  142.8846  157.2514 C.ar    1  UNL1        0.0990
     31 C         139.2914  143.3246  158.4040 C.ar    1  UNL1        0.0280
     32 C         140.2687  144.4487  158.2274 C.ar    1  UNL1        0.0429
     33 C         140.3927  145.1329  156.8983 C.ar    1  UNL1        0.0772
     34 CL        141.3700  146.2570  156.7217 Cl      1  UNL1       -0.0805
@<TRIPOS>BOND
     1    27    28    1
     2    28    29   ar
     3    29    30   ar
     4    30    31   ar
     5    31    32   ar
     6    32    26    1
     7    26     1    1
     8     1     2   ar
     9     2     3    1
    10     2     4   ar
    11     4     5   ar
    12     5    12    1
    13    12    13    1
    14    13    14    1
    15    14    15    1
    16    15    16    1
    17    16    17    1
    18    15    18    1
    19    18    19    1
    20    19    20    1
    21    20    21    1
    22    20    22    1
    23    22    23    1
    24     5     6   ar
    25     6     7    1
    26     6     8   ar
    27     8     9    2
    28    32    33   ar
    29    33    34    1
    30    33    28   ar
    31     8     1   ar
    32    17    12    1
    33    22    15    1
    34     3    10    1
    35     3    11    1
    36    23    24    1
    37    23    25    1
@<TRIPOS>MOLECULE
*****
 34 37 0 0 0
SMALL
GASTEIGER

@<TRIPOS>ATOM
      1 C         138.6440  139.3975  162.7589 C.ar    1  UNL1        0.1169
      2 C         137.7883  140.6248  162.6505 C.ar    1  UNL1        0.1389
      3 N         137.0782  141.1533  163.8615 N.pl3   1  UNL1       -0.3420
      4 N         137.6427  141.3234  161.3312 N.ar    1  UNL1       -0.1998
      5 C         138.3527  140.7948  160.1202 C.ar    1  UNL1        0.2046
      6 N         139.2084  139.5676  160.2285 N.ar    1  UNL1       -0.2662
      7 C         139.9184  139.0391  159.0176 C.3     1  UNL1        0.1363
      8 C         139.3541  138.8689  161.5479 C.ar    1  UNL1        0.2716
      9 O         140.2098  137.6418  161.6563 O.2     1  UNL1       -0.2663
     10 H         137.1738  140.6948  164.7274 H       1  UNL1        0.1437
     11 H         136.5166  141.9588  163.7903 H       1  UNL1        0.1437
     12 N         138.2070  141.4935  158.8008 N.pl3   1  UNL1       -0.2794
     13 C         137.1600  141.0436  157.8255 C.3     1  UNL1        0.0937
     14 C         137.0144  141.7423  156.5062 C.3     1  UNL1        0.0254
     15 C         137.9158  142.8909  156.1622 C.3     1  UNL1        0.0460
     16 C         138.9628  143.3408  157.1376 C.3     1  UNL1        0.0254
     17 C         139.1084  142.6421  158.4569 C.3     1  UNL1        0.0937
     18 C         138.7402  144.0482  155.6817 C.3     1  UNL1        0.1434
     19 O         138.2541  144.4275  154.3142 O.3     1  UNL1       -0.3548
     20 C         137.1292  143.5046  153.9496 C.3     1  UNL1        0.1294
     21 C         136.3502  143.5274  152.6681 C.3     1  UNL1        0.0335
     22 C         136.9201  142.5549  155.0917 C.3     1  UNL1        0.0807
     23 N         135.8953  141.4613  155.1528 N.3     1  UNL1       -0.3202
     24 H         135.9747  140.9703  156.0433 H       1  UNL1        0.1189
     25 H         136.0521  140.8053  154.3876 H       1  UNL1        0.1189
     26 S         138.7897  138.6989  164.0782 S.3     1  UNL1       -0.0785
     27 C         139.4607  140.1393  169.0254 C.3     1  UNL1        0.0530
     28 C         139.9856  140.0161  167.6257 C.ar    1  UNL1        0.0704
     29 N         141.3710  140.4901  167.2998 N.ar    1  UNL1       -0.2473
     30 C         141.8959  140.3670  165.9000 C.ar    1  UNL1        0.0990
     31 C         141.0354  139.7699  164.8261 C.ar    1  UNL1        0.0280
     32 C         139.6501  139.2960  165.1520 C.ar    1  UNL1        0.0429
     33 C         139.1252  139.4191  166.5519 C.ar    1  UNL1        0.0772
     34 CL        137.7399  138.9451  166.8778 Cl      1  UNL1       -0.0805
@<TRIPOS>BOND
     1    27    28    1
     2    28    29   ar
     3    29    30   ar
     4    30    31   ar
     5    31    32   ar
     6    32    26    1
     7    26     1    1
     8     1     2   ar
     9     2     3    1
    10     2     4   ar
    11     4     5   ar
    12     5    12    1
    13    12    13    1
    14    13    14    1
    15    14    15    1
    16    15    16    1
    17    16    17    1
    18    15    18    1
    19    18    19    1
    20    19    20    1
    21    20    21    1
    22    20    22    1
    23    22    23    1
    24     5     6   ar
    25     6     7    1
    26     6     8   ar
    27     8     9    2
    28    32    33   ar
    29    33    34    1
    30    33    28   ar
    31     8     1   ar
    32    17    12    1
    33    22    15    1
    34     3    10    1
    35     3    11    1
    36    23    24    1
    37    23    25    1
@<TRIPOS>MOLECULE
*****
 34 37 0 0 0
SMALL
GASTEIGER

@<TRIPOS>ATOM
      1 C         140.9396  142.3564  163.8449 C.ar    1  UNL1        0.1169
      2 C         140.3054  142.6900  162.5271 C.ar    1  UNL1        0.1389
      3 N         138.9335  143.2951  162.4868 N.pl3   1  UNL1       -0.3420
      4 N         141.0431  142.4184  161.2496 N.ar    1  UNL1       -0.1998
      5 C         142.4150  141.8132  161.2899 C.ar    1  UNL1        0.2046
      6 N         143.0492  141.4796  162.6076 N.ar    1  UNL1       -0.2662
      7 C         144.4211  140.8745  162.6479 C.3     1  UNL1        0.1363
      8 C         142.3115  141.7512  163.8852 C.ar    1  UNL1        0.2716
      9 O         142.9457  141.4177  165.2029 O.2     1  UNL1       -0.2663
     10 H         138.4493  143.4734  163.3253 H       1  UNL1        0.1437
     11 H         138.5172  143.5140  161.6219 H       1  UNL1        0.1437
     12 N         143.1527  141.5416  160.0123 N.pl3   1  UNL1       -0.2794
     13 C         144.2538  142.4602  159.5723 C.3     1  UNL1        0.0937
     14 C         144.9915  142.1885  158.2948 C.3     1  UNL1        0.0254
     15 C         144.6281  140.9983  157.4574 C.3     1  UNL1        0.0460
     16 C         143.5270  140.0797  157.8974 C.3     1  UNL1        0.0254
     17 C         142.7893  140.3513  159.1749 C.3     1  UNL1        0.0937
     18 C         144.3776  139.8536  156.5209 C.3     1  UNL1        0.1434
     19 O         145.3405  139.9715  155.3767 O.3     1  UNL1       -0.3548
     20 C         146.1861  141.1891  155.6061 C.3     1  UNL1        0.1294
     21 C         147.2798  141.6850  154.7075 C.3     1  UNL1        0.0335
     22 C         145.7458  141.8237  156.8920 C.3     1  UNL1        0.0807
     23 N         146.3220  143.0655  157.5049 N.3     1  UNL1       -0.3202
     24 H         145.8352  143.2714  158.3774 H       1  UNL1        0.1189
     25 H         146.2086  143.8473  156.8597 H       1  UNL1        0.1189
     26 S         140.2019  142.6280  165.1224 S.3     1  UNL1       -0.0785
     27 C         139.9830  140.1024  169.6581 C.3     1  UNL1        0.0530
     28 C         139.5809  140.2237  168.2181 C.ar    1  UNL1        0.0704
     29 N         138.6672  139.2037  167.6060 N.ar    1  UNL1       -0.2473
     30 C         138.2651  139.3250  166.1661 C.ar    1  UNL1        0.0990
     31 C         138.7767  140.4665  165.3381 C.ar    1  UNL1        0.0280
     32 C         139.6903  141.4866  165.9502 C.ar    1  UNL1        0.0429
     33 C         140.0924  141.3652  167.3903 C.ar    1  UNL1        0.0772
     34 CL        141.0061  142.3852  168.0024 Cl      1  UNL1       -0.0805
@<TRIPOS>BOND
     1    27    28    1
     2    28    29   ar
     3    29    30   ar
     4    30    31   ar
     5    31    32   ar
     6    32    26    1
     7    26     1    1
     8     1     2   ar
     9     2     3    1
    10     2     4   ar
    11     4     5   ar
    12     5    12    1
    13    12    13    1
    14    13    14    1
    15    14    15    1
    16    15    16    1
    17    16    17    1
    18    15    18    1
    19    18    19    1
    20    19    20    1
    21    20    21    1
    22    20    22    1
    23    22    23    1
    24     5     6   ar
    25     6     7    1
    26     6     8   ar
    27     8     9    2
    28    32    33   ar
    29    33    34    1
    30    33    28   ar
    31     8     1   ar
    32    17    12    1
    33    22    15    1
    34     3    10    1
    35     3    11    1
    36    23    24    1
    37    23    25    1
@<TRIPOS>MOLECULE
*****
 34 37 0 0 0
SMALL
GASTEIGER

@<TRIPOS>ATOM
      1 C         140.1388  138.5154  160.7771 C.ar    1  UNL1        0.1169
      2 C         141.5919  138.2220  161.0063 C.ar    1  UNL1        0.1389
      3 N         142.0256  137.5092  162.2528 N.pl3   1  UNL1       -0.3420
      4 N         142.6113  138.6415  159.9890 N.ar    1  UNL1       -0.1998
      5 C         142.1776  139.3543  158.7425 C.ar    1  UNL1        0.2046
      6 N         140.7246  139.6477  158.5132 N.ar    1  UNL1       -0.2662
      7 C         140.2909  140.3606  157.2667 C.3     1  UNL1        0.1363
      8 C         139.7051  139.2283  159.5306 C.ar    1  UNL1        0.2716
      9 O         138.2521  139.5217  159.3013 O.2     1  UNL1       -0.2663
     10 H         141.3565  137.2339  162.9204 H       1  UNL1        0.1437
     11 H         142.9793  137.3166  162.4032 H       1  UNL1        0.1437
     12 N         143.1971  139.7738  157.7252 N.pl3   1  UNL1       -0.2794
     13 C         144.0960  140.9422  158.0019 C.3     1  UNL1        0.0937
     14 C         145.1154  141.3616  156.9846 C.3     1  UNL1        0.0254
     15 C         145.2358  140.6126  155.6906 C.3     1  UNL1        0.0460
     16 C         144.3368  139.4442  155.4138 C.3     1  UNL1        0.0254
     17 C         143.3175  139.0248  156.4311 C.3     1  UNL1        0.0937
     18 C         145.4713  139.9635  154.3589 C.3     1  UNL1        0.1434
     19 O         146.5798  140.7045  153.6716 O.3     1  UNL1       -0.3548
     20 C         147.0294  141.8116  154.5785 C.3     1  UNL1        0.1294
     21 C         148.1182  142.8015  154.2886 C.3     1  UNL1        0.0335
     22 C         146.1988  141.7548  155.8263 C.3     1  UNL1        0.0807
     23 N         146.3112  142.6779  157.0031 N.3     1  UNL1       -0.3202
     24 H         145.6261  142.4121  157.7105 H       1  UNL1        0.1189
     25 H         146.1344  143.6362  156.7017 H       1  UNL1        0.1189
     26 S         139.1194  138.0960  161.7943 S.3     1  UNL1       -0.0785
     27 C         138.6258  139.2032  166.8470 C.3     1  UNL1        0.0530
     28 C         138.4648  139.5980  165.4089 C.ar    1  UNL1        0.0704
     29 N         137.8960  140.9411  165.0590 N.ar    1  UNL1       -0.2473
     30 C         137.7350  141.3359  163.6209 C.ar    1  UNL1        0.0990
     31 C         138.1428  140.3875  162.5326 C.ar    1  UNL1        0.0280
     32 C         138.7116  139.0444  162.8825 C.ar    1  UNL1        0.0429
     33 C         138.8726  138.6496  164.3207 C.ar    1  UNL1        0.0772
     34 CL        139.4414  137.3065  164.6706 Cl      1  UNL1       -0.0805
@<TRIPOS>BOND
     1    27    28    1
     2    28    29   ar
     3    29    30   ar
     4    30    31   ar
     5    31    32   ar
     6    32    26    1
     7    26     1    1
     8     1     2   ar
     9     2     3    1
    10     2     4   ar
    11     4     5   ar
    12     5    12    1
    13    12    13    1
    14    13    14    1
    15    14    15    1
    16    15    16    1
    17    16    17    1
    18    15    18    1
    19    18    19    1
    20    19    20    1
    21    20    21    1
    22    20    22    1
    23    22    23    1
    24     5     6   ar
    25     6     7    1
    26     6     8   ar
    27     8     9    2
    28    32    33   ar
    29    33    34    1
    30    33    28   ar
    31     8     1   ar
    32    17    12    1
    33    22    15    1
    34     3    10    1
    35     3    11    1
    36    23    24    1
    37    23    25    1
@<TRIPOS>MOLECULE
*****
 34 37 0 0 0
SMALL
GASTEIGER

@<TRIPOS>ATOM
      1 C         141.1134  139.5300  158.9959 C.ar    1  UNL1        0.1169
      2 C         140.0044  140.4201  159.4734 C.ar    1  UNL1        0.1389
      3 N         139.2873  141.3112  158.5029 N.pl3   1  UNL1       -0.3420
      4 N         139.6124  140.4190  160.9212 N.ar    1  UNL1       -0.1998
      5 C         140.3294  139.5279  161.8917 C.ar    1  UNL1        0.2046
      6 N         141.4384  138.6378  161.4143 N.ar    1  UNL1       -0.2662
      7 C         142.1554  137.7467  162.3847 C.3     1  UNL1        0.1363
      8 C         141.8304  138.6389  159.9664 C.ar    1  UNL1        0.2716
      9 O         142.9393  137.7488  159.4890 O.2     1  UNL1       -0.2663
     10 H         139.5446  141.3119  157.5526 H       1  UNL1        0.1437
     11 H         138.5595  141.8954  158.8163 H       1  UNL1        0.1437
     12 N         139.9375  139.5269  163.3396 N.pl3   1  UNL1       -0.2794
     13 C         140.6517  140.4197  164.3106 C.3     1  UNL1        0.0937
     14 C         140.2597  140.4186  165.7584 C.3     1  UNL1        0.0254
     15 C         139.1535  139.5248  166.2353 C.3     1  UNL1        0.0460
     16 C         138.4393  138.6320  165.2643 C.3     1  UNL1        0.0254
     17 C         138.8313  138.6331  163.8165 C.3     1  UNL1        0.0937
     18 C         138.0728  138.6897  166.8555 C.3     1  UNL1        0.1434
     19 O         138.0247  139.0075  168.3208 O.3     1  UNL1       -0.3548
     20 C         139.0758  140.0390  168.6061 C.3     1  UNL1        0.1294
     21 C         139.3764  140.6444  169.9450 C.3     1  UNL1        0.0335
     22 C         139.7733  140.3587  167.3172 C.3     1  UNL1        0.0807
     23 N         140.8940  141.3400  167.1411 N.3     1  UNL1       -0.3202
     24 H         141.1788  141.3587  166.1618 H       1  UNL1        0.1189
     25 H         141.6856  141.0597  167.7201 H       1  UNL1        0.1189
     26 S         141.5053  139.5310  157.5480 S.3     1  UNL1       -0.0785
     27 C         142.6251  135.6282  154.3056 C.3     1  UNL1        0.0530
     28 C         141.6130  136.4682  155.0266 C.ar    1  UNL1        0.0704
     29 N         140.1486  136.1969  154.8475 N.ar    1  UNL1       -0.2473
     30 C         139.1365  137.0369  155.5685 C.ar    1  UNL1        0.0990
     31 C         139.5887  138.1484  156.4687 C.ar    1  UNL1        0.0280
     32 C         141.0531  138.4197  156.6479 C.ar    1  UNL1        0.0429
     33 C         142.0652  137.5796  155.9268 C.ar    1  UNL1        0.0772
     34 CL        143.5295  137.8509  156.1059 Cl      1  UNL1       -0.0805
@<TRIPOS>BOND
     1    27    28    1
     2    28    29   ar
     3    29    30   ar
     4    30    31   ar
     5    31    32   ar
     6    32    26    1
     7    26     1    1
     8     1     2   ar
     9     2     3    1
    10     2     4   ar
    11     4     5   ar
    12     5    12    1
    13    12    13    1
    14    13    14    1
    15    14    15    1
    16    15    16    1
    17    16    17    1
    18    15    18    1
    19    18    19    1
    20    19    20    1
    21    20    21    1
    22    20    22    1
    23    22    23    1
    24     5     6   ar
    25     6     7    1
    26     6     8   ar
    27     8     9    2
    28    32    33   ar
    29    33    34    1
    30    33    28   ar
    31     8     1   ar
    32    17    12    1
    33    22    15    1
    34     3    10    1
    35     3    11    1
    36    23    24    1
    37    23    25    1
@<TRIPOS>MOLECULE
*****
 34 37 0 0 0
SMALL
GASTEIGER

@<TRIPOS>ATOM
      1 C         139.2588  140.4103  162.9671 C.ar    1  UNL1        0.1169
      2 C         138.0873  141.2666  162.5869 C.ar    1  UNL1        0.1389
      3 N         136.8965  141.3543  163.4948 N.pl3   1  UNL1       -0.3420
      4 N         138.1067  142.0351  161.2990 N.ar    1  UNL1       -0.1998
      5 C         139.2975  141.9474  160.3911 C.ar    1  UNL1        0.2046
      6 N         140.4690  141.0912  160.7712 N.ar    1  UNL1       -0.2662
      7 C         141.6598  141.0035  159.8633 C.3     1  UNL1        0.1363
      8 C         140.4496  140.3226  162.0592 C.ar    1  UNL1        0.2716
      9 O         141.6211  139.4664  162.4394 O.2     1  UNL1       -0.2663
     10 H         136.8838  140.8499  164.3402 H       1  UNL1        0.1437
     11 H         136.1276  141.9163  163.2453 H       1  UNL1        0.1437
     12 N         139.3168  142.7160  159.1030 N.pl3   1  UNL1       -0.2794
     13 C         140.0079  144.0455  159.0333 C.3     1  UNL1        0.0937
     14 C         140.0272  144.8140  157.7453 C.3     1  UNL1        0.0254
     15 C         139.3555  144.2530  156.5271 C.3     1  UNL1        0.0460
     16 C         138.6644  142.9236  156.5968 C.3     1  UNL1        0.0254
     17 C         138.6451  142.1551  157.8848 C.3     1  UNL1        0.0937
     18 C         138.7302  143.8218  155.2335 C.3     1  UNL1        0.1434
     19 O         138.9918  144.8900  154.2134 O.3     1  UNL1       -0.3548
     20 C         139.7786  145.9815  154.8765 C.3     1  UNL1        0.1294
     21 C         140.2567  147.2447  154.2243 C.3     1  UNL1        0.0335
     22 C         140.0034  145.5878  156.3064 C.3     1  UNL1        0.0807
     23 N         140.7457  146.3883  157.3350 N.3     1  UNL1       -0.3202
     24 H         140.7463  145.8849  158.2221 H       1  UNL1        0.1189
     25 H         140.2888  147.2920  157.4572 H       1  UNL1        0.1189
     26 S         139.2394  139.6418  164.2551 S.3     1  UNL1       -0.0785
     27 C         139.1028  140.1273  169.4267 C.3     1  UNL1        0.0530
     28 C         139.6836  140.5182  168.1001 C.ar    1  UNL1        0.0704
     29 N         140.7770  141.5429  168.0328 N.ar    1  UNL1       -0.2473
     30 C         141.3579  141.9339  166.7063 C.ar    1  UNL1        0.0990
     31 C         140.8454  141.3002  165.4470 C.ar    1  UNL1        0.0280
     32 C         139.7520  140.2755  165.5143 C.ar    1  UNL1        0.0429
     33 C         139.1711  139.8845  166.8409 C.ar    1  UNL1        0.0772
     34 CL        138.0777  138.8599  166.9082 Cl      1  UNL1       -0.0805
@<TRIPOS>BOND
     1    27    28    1
     2    28    29   ar
     3    29    30   ar
     4    30    31   ar
     5    31    32   ar
     6    32    26    1
     7    26     1    1
     8     1     2   ar
     9     2     3    1
    10     2     4   ar
    11     4     5   ar
    12     5    12    1
    13    12    13    1
    14    13    14    1
    15    14    15    1
    16    15    16    1
    17    16    17    1
    18    15    18    1
    19    18    19    1
    20    19    20    1
    21    20    21    1
    22    20    22    1
    23    22    23    1
    24     5     6   ar
    25     6     7    1
    26     6     8   ar
    27     8     9    2
    28    32    33   ar
    29    33    34    1
    30    33    28   ar
    31     8     1   ar
    32    17    12    1
    33    22    15    1
    34     3    10    1
    35     3    11    1
    36    23    24    1
    37    23    25    1
@<TRIPOS>MOLECULE
*****
 34 37 0 0 0
SMALL
GASTEIGER

@<TRIPOS>ATOM
      1 C         140.2209  144.8200  156.8901 C.ar    1  UNL1        0.1169
      2 C         139.1336  143.7867  156.9063 C.ar    1  UNL1        0.1389
      3 N         138.2036  143.6582  155.7364 N.pl3   1  UNL1       -0.3420
      4 N         138.9763  142.8820  158.0923 N.ar    1  UNL1       -0.1998
      5 C         139.9063  143.0106  159.2622 C.ar    1  UNL1        0.2046
      6 N         140.9935  144.0438  159.2461 N.ar    1  UNL1       -0.2662
      7 C         141.9235  144.1723  160.4160 C.3     1  UNL1        0.1363
      8 C         141.1508  144.9485  158.0600 C.ar    1  UNL1        0.2716
      9 O         142.2381  145.9818  158.0438 O.2     1  UNL1       -0.2663
     10 H         138.3068  144.2520  154.9579 H       1  UNL1        0.1437
     11 H         137.4900  142.9800  155.7470 H       1  UNL1        0.1437
     12 N         139.7489  142.1058  160.4483 N.pl3   1  UNL1       -0.2794
     13 C         138.7704  142.4520  161.5311 C.3     1  UNL1        0.0937
     14 C         138.6131  141.5473  162.7172 C.3     1  UNL1        0.0254
     15 C         139.4344  140.2963  162.8203 C.3     1  UNL1        0.0460
     16 C         140.4129  139.9501  161.7375 C.3     1  UNL1        0.0254
     17 C         140.5702  140.8548  160.5515 C.3     1  UNL1        0.0937
     18 C         140.1826  139.0185  163.0599 C.3     1  UNL1        0.1434
     19 O         139.7118  138.4429  164.3627 O.3     1  UNL1       -0.3548
     20 C         138.6727  139.3651  164.9283 C.3     1  UNL1        0.1294
     21 C         137.9347  139.1752  166.2203 C.3     1  UNL1        0.0335
     22 C         138.5012  140.5105  163.9751 C.3     1  UNL1        0.0807
     23 N         137.5616  141.6671  164.1465 N.3     1  UNL1       -0.3202
     24 H         137.6504  142.2982  163.3501 H       1  UNL1        0.1189
     25 H         137.7920  142.1680  165.0046 H       1  UNL1        0.1189
     26 S         140.3781  145.7247  155.7040 S.3     1  UNL1       -0.0785
     27 C         139.5867  150.3226  153.4166 C.3     1  UNL1        0.0530
     28 C         139.3959  149.4040  154.5869 C.ar    1  UNL1        0.0704
     29 N         138.6185  149.8656  155.7838 N.ar    1  UNL1       -0.2473
     30 C         138.4276  148.9470  156.9541 C.ar    1  UNL1        0.0990
     31 C         139.0142  147.5666  156.9276 C.ar    1  UNL1        0.0280
     32 C         139.7916  147.1050  155.7307 C.ar    1  UNL1        0.0429
     33 C         139.9824  148.0237  154.5603 C.ar    1  UNL1        0.0772
     34 CL        140.7598  147.5621  153.3634 Cl      1  UNL1       -0.0805
@<TRIPOS>BOND
     1    27    28    1
     2    28    29   ar
     3    29    30   ar
     4    30    31   ar
     5    31    32   ar
     6    32    26    1
     7    26     1    1
     8     1     2   ar
     9     2     3    1
    10     2     4   ar
    11     4     5   ar
    12     5    12    1
    13    12    13    1
    14    13    14    1
    15    14    15    1
    16    15    16    1
    17    16    17    1
    18    15    18    1
    19    18    19    1
    20    19    20    1
    21    20    21    1
    22    20    22    1
    23    22    23    1
    24     5     6   ar
    25     6     7    1
    26     6     8   ar
    27     8     9    2
    28    32    33   ar
    29    33    34    1
    30    33    28   ar
    31     8     1   ar
    32    17    12    1
    33    22    15    1
    34     3    10    1
    35     3    11    1
    36    23    24    1
    37    23    25    1
