@<TRIPOS>MOLECULE
*****
 43 46 0 0 0
SMALL
GASTEIGER

@<TRIPOS>ATOM
      1 C         142.3121  141.0574  163.2074 C.3     1  UNL1        0.0799
      2 C         142.5201  141.4059  164.6515 C.ar    1  UNL1        0.0374
      3 C         141.6826  140.7505  165.7093 C.ar    1  UNL1        0.0023
      4 C         141.8906  141.0990  167.1534 C.ar    1  UNL1        0.0181
      5 C         141.0531  140.4436  168.2112 C.ar    1  UNL1        0.0082
      6 C         141.2611  140.7921  169.6553 C.ar    1  UNL1        0.0347
      7 BR        140.4236  140.1367  170.7132 Br      1  UNL1       -0.0490
      8 C         142.3065  141.7960  170.0415 C.ar    1  UNL1        0.0082
      9 C         143.1440  142.4515  168.9836 C.ar    1  UNL1        0.0197
     10 C         142.9360  142.1030  167.5396 C.ar    1  UNL1        0.0844
     11 N         143.7735  142.7584  166.4818 N.ar    1  UNL1       -0.2119
     12 C         143.5655  142.4098  165.0377 C.ar    1  UNL1        0.2211
     13 O         144.4030  143.0653  163.9798 O.3     1  UNL1       -0.4563
     14 C         143.9302  144.4866  163.8999 C.3     1  UNL1        0.2542
     15 C         141.6127  142.0220  162.2962 C.ar    1  UNL1        0.0148
     16 C         142.3453  142.6193  161.1316 C.ar    1  UNL1       -0.0014
     17 C         141.6459  143.5840  160.2204 C.ar    1  UNL1        0.0029
     18 C         140.2138  143.9513  160.4739 C.ar    1  UNL1        0.0392
     19 C         139.4812  143.3540  161.6386 C.ar    1  UNL1        0.1657
     20 C         140.1807  142.3893  162.5498 C.ar    1  UNL1        0.1702
     21 F         139.4481  141.7919  163.7144 F       1  UNL1       -0.2013
     22 O         138.0492  143.7213  161.8921 O.3     1  UNL1       -0.4692
     23 C         137.6471  144.3037  163.2146 C.3     1  UNL1        0.2526
     24 C         142.8036  139.7441  162.6745 C.3     1  UNL1        0.1162
     25 O         144.2130  140.2562  162.7126 O.3     1  UNL1       -0.3820
     26 H         144.8164  139.5659  162.3959 H       1  UNL1        0.2107
     27 C         139.1683  138.8633  161.3484 C.ar    1  UNL1        0.2272
     28 C         140.5777  139.3753  161.3864 C.ar    1  UNL1        0.0559
     29 C         141.3942  139.2321  162.6365 C.ar    1  UNL1        0.0117
     30 C         140.8013  138.5769  163.8485 C.ar    1  UNL1        0.0559
     31 C         139.3920  138.0648  163.8105 C.ar    1  UNL1        0.2270
     32 N         138.5754  138.2081  162.5604 N.ar    1  UNL1       -0.1767
     33 C         138.2412  140.3417  159.4235 C.3     1  UNL1        0.2542
     34 O         138.3518  139.0065  160.0982 O.3     1  UNL1       -0.4561
     35 O         138.7991  137.4096  165.0226 O.3     1  UNL1       -0.4640
     36 C         138.0939  138.2392  166.0543 C.3     1  UNL1        0.1678
     37 C         137.3378  137.5718  167.1647 C.3     1  UNL1        0.0473
     38 C         138.1448  139.7363  165.9756 C.3     1  UNL1        0.0473
     39 C         143.2951  138.4309  162.1417 C.3     1  UNL1        0.0491
     40 C         144.1556  138.3946  160.9136 C.3     1  UNL1        0.0750
     41 N         143.5717  138.7484  159.5779 N.3     1  UNL1       -0.2702
     42 C         142.7199  137.7550  158.8449 C.3     1  UNL1        0.0897
     43 C         143.8397  140.0957  158.9754 C.3     1  UNL1        0.0897
@<TRIPOS>BOND
     1    33    34    1
     2    34    27    1
     3    27    28   ar
     4    28    29   ar
     5    29    24    1
     6    24    25    1
     7    24    39    1
     8    39    40    1
     9    40    41    1
    10    41    42    1
    11    41    43    1
    12    24     1    1
    13     1     2    1
    14     2     3   ar
    15     3     4   ar
    16     4     5   ar
    17     5     6   ar
    18     6     7    1
    19     6     8   ar
    20     8     9   ar
    21     9    10   ar
    22    10    11   ar
    23    11    12   ar
    24    12    13    1
    25    13    14    1
    26     1    15    1
    27    15    16   ar
    28    16    17   ar
    29    17    18   ar
    30    18    19   ar
    31    19    22    1
    32    22    23    1
    33    19    20   ar
    34    20    21    1
    35    29    30   ar
    36    30    31   ar
    37    31    35    1
    38    35    36    1
    39    36    37    1
    40    36    38    1
    41    31    32   ar
    42    32    27   ar
    43    12     2   ar
    44    20    15   ar
    45    10     4   ar
    46    25    26    1
@<TRIPOS>MOLECULE
*****
 43 46 0 0 0
SMALL
GASTEIGER

@<TRIPOS>ATOM
      1 C         141.7967  140.9144  162.5668 C.3     1  UNL1        0.0799
      2 C         141.6817  140.6562  164.0400 C.ar    1  UNL1        0.0374
      3 C         141.3239  141.7759  164.9719 C.ar    1  UNL1        0.0023
      4 C         141.2089  141.5178  166.4450 C.ar    1  UNL1        0.0181
      5 C         140.8512  142.6374  167.3769 C.ar    1  UNL1        0.0082
      6 C         140.7362  142.3793  168.8501 C.ar    1  UNL1        0.0347
      7 BR        140.3784  143.4989  169.7820 Br      1  UNL1       -0.0490
      8 C         140.9789  141.0016  169.3914 C.ar    1  UNL1        0.0082
      9 C         141.3367  139.8820  168.4595 C.ar    1  UNL1        0.0197
     10 C         141.4517  140.1400  166.9864 C.ar    1  UNL1        0.0844
     11 N         141.8094  139.0204  166.0545 N.ar    1  UNL1       -0.2119
     12 C         141.9244  139.2785  164.5813 C.ar    1  UNL1        0.2211
     13 O         142.2822  138.1589  163.6494 O.3     1  UNL1       -0.4563
     14 C         141.1643  137.1638  163.7503 C.3     1  UNL1        0.2542
     15 C         140.9754  140.1151  161.5990 C.ar    1  UNL1        0.0148
     16 C         139.4963  139.9765  161.8062 C.ar    1  UNL1       -0.0014
     17 C         138.6751  139.1773  160.8384 C.ar    1  UNL1        0.0029
     18 C         139.3330  138.5165  159.6633 C.ar    1  UNL1        0.0392
     19 C         140.8121  138.6551  159.4562 C.ar    1  UNL1        0.1657
     20 C         141.6334  139.4544  160.4241 C.ar    1  UNL1        0.1702
     21 F         143.1125  139.5930  160.2169 F       1  UNL1       -0.2013
     22 O         141.4700  137.9944  158.2812 O.3     1  UNL1       -0.4692
     23 C         140.6662  137.6669  157.0579 C.3     1  UNL1        0.2526
     24 C         142.7329  141.9718  162.0615 C.3     1  UNL1        0.1162
     25 O         143.8995  141.1925  162.5924 O.3     1  UNL1       -0.3820
     26 H         144.7218  141.6692  162.3987 H       1  UNL1        0.2107
     27 C         140.2420  143.7310  159.5218 C.ar    1  UNL1        0.2272
     28 C         141.4086  142.9517  160.0526 C.ar    1  UNL1        0.0559
     29 C         141.5664  142.7510  161.5307 C.ar    1  UNL1        0.0117
     30 C         140.5575  143.3296  162.4780 C.ar    1  UNL1        0.0559
     31 C         139.3909  144.1089  161.9472 C.ar    1  UNL1        0.2270
     32 N         139.2332  144.3096  160.4691 N.ar    1  UNL1       -0.1767
     33 C         140.5205  145.2198  157.4109 C.3     1  UNL1        0.2542
     34 O         140.0843  143.9317  158.0436 O.3     1  UNL1       -0.4561
     35 O         138.3820  144.6875  162.8945 O.3     1  UNL1       -0.4640
     36 C         138.2263  144.1089  164.2696 C.3     1  UNL1        0.1678
     37 C         138.5898  144.9270  165.4731 C.3     1  UNL1        0.0473
     38 C         137.7071  142.7121  164.4412 C.3     1  UNL1        0.0473
     39 C         143.6692  143.0292  161.5563 C.3     1  UNL1        0.0491
     40 C         144.5683  143.7543  162.5133 C.3     1  UNL1        0.0750
     41 N         144.0496  144.1773  163.8556 N.3     1  UNL1       -0.2702
     42 C         143.0497  145.2909  163.9564 C.3     1  UNL1        0.0897
     43 C         144.5307  143.4867  165.0973 C.3     1  UNL1        0.0897
@<TRIPOS>BOND
     1    33    34    1
     2    34    27    1
     3    27    28   ar
     4    28    29   ar
     5    29    24    1
     6    24    25    1
     7    24    39    1
     8    39    40    1
     9    40    41    1
    10    41    42    1
    11    41    43    1
    12    24     1    1
    13     1     2    1
    14     2     3   ar
    15     3     4   ar
    16     4     5   ar
    17     5     6   ar
    18     6     7    1
    19     6     8   ar
    20     8     9   ar
    21     9    10   ar
    22    10    11   ar
    23    11    12   ar
    24    12    13    1
    25    13    14    1
    26     1    15    1
    27    15    16   ar
    28    16    17   ar
    29    17    18   ar
    30    18    19   ar
    31    19    22    1
    32    22    23    1
    33    19    20   ar
    34    20    21    1
    35    29    30   ar
    36    30    31   ar
    37    31    35    1
    38    35    36    1
    39    36    37    1
    40    36    38    1
    41    31    32   ar
    42    32    27   ar
    43    12     2   ar
    44    20    15   ar
    45    10     4   ar
    46    25    26    1
@<TRIPOS>MOLECULE
*****
 43 46 0 0 0
SMALL
GASTEIGER

@<TRIPOS>ATOM
      1 C         141.3639  142.4064  162.4223 C.3     1  UNL1        0.0799
      2 C         141.8596  142.3535  163.8371 C.ar    1  UNL1        0.0374
      3 C         141.0294  141.6947  164.8985 C.ar    1  UNL1        0.0023
      4 C         141.5250  141.6418  166.3132 C.ar    1  UNL1        0.0181
      5 C         140.6948  140.9830  167.3747 C.ar    1  UNL1        0.0082
      6 C         141.1905  140.9301  168.7895 C.ar    1  UNL1        0.0347
      7 BR        140.3603  140.2713  169.8509 Br      1  UNL1       -0.0490
      8 C         142.5163  141.5361  169.1428 C.ar    1  UNL1        0.0082
      9 C         143.3466  142.1949  168.0813 C.ar    1  UNL1        0.0197
     10 C         142.8509  142.2478  166.6666 C.ar    1  UNL1        0.0844
     11 N         143.6812  142.9066  165.6052 N.ar    1  UNL1       -0.2119
     12 C         143.1855  142.9595  164.1904 C.ar    1  UNL1        0.2211
     13 O         144.0157  143.6183  163.1289 O.3     1  UNL1       -0.4563
     14 C         143.8170  145.0946  163.3057 C.3     1  UNL1        0.2542
     15 C         142.2197  141.8819  161.3077 C.ar    1  UNL1        0.0148
     16 C         142.5797  142.7726  160.1557 C.ar    1  UNL1       -0.0014
     17 C         143.4355  142.2481  159.0410 C.ar    1  UNL1        0.0029
     18 C         143.9313  140.8328  159.0783 C.ar    1  UNL1        0.0392
     19 C         143.5713  139.9421  160.2303 C.ar    1  UNL1        0.1657
     20 C         142.7154  140.4667  161.3450 C.ar    1  UNL1        0.1702
     21 F         142.3554  139.5760  162.4970 F       1  UNL1       -0.2013
     22 O         144.0670  138.5270  160.2676 O.3     1  UNL1       -0.4692
     23 C         143.0992  137.3894  160.1291 C.3     1  UNL1        0.2526
     24 C         140.0124  142.9838  162.1222 C.3     1  UNL1        0.1162
     25 O         140.4945  144.3369  162.5542 O.3     1  UNL1       -0.3820
     26 H         139.7745  144.9806  162.4643 H       1  UNL1        0.2107
     27 C         138.8172  139.9927  159.8039 C.ar    1  UNL1        0.2272
     28 C         139.2993  141.3458  160.2358 C.ar    1  UNL1        0.0559
     29 C         139.5302  141.6307  161.6903 C.ar    1  UNL1        0.0117
     30 C         139.2789  140.5624  162.7128 C.ar    1  UNL1        0.0559
     31 C         138.7967  139.2093  162.2809 C.ar    1  UNL1        0.2270
     32 N         138.5658  138.9244  160.8264 N.ar    1  UNL1       -0.1767
     33 C         137.9439  140.7437  157.4750 C.3     1  UNL1        0.2542
     34 O         138.5863  139.7079  158.3493 O.3     1  UNL1       -0.4561
     35 O         138.5454  138.1410  163.3035 O.3     1  UNL1       -0.4640
     36 C         139.1690  138.2434  164.6639 C.3     1  UNL1        0.1678
     37 C         138.3374  138.6597  165.8407 C.3     1  UNL1        0.0473
     38 C         140.6244  137.9295  164.8473 C.3     1  UNL1        0.0473
     39 C         138.6609  143.5612  161.8222 C.3     1  UNL1        0.0491
     40 C         137.9289  144.3423  162.8730 C.3     1  UNL1        0.0750
     41 N         138.0264  143.9359  164.3136 N.3     1  UNL1       -0.2702
     42 C         137.5459  142.5822  164.7452 C.3     1  UNL1        0.0897
     43 C         138.6046  144.8835  165.3226 C.3     1  UNL1        0.0897
@<TRIPOS>BOND
     1    33    34    1
     2    34    27    1
     3    27    28   ar
     4    28    29   ar
     5    29    24    1
     6    24    25    1
     7    24    39    1
     8    39    40    1
     9    40    41    1
    10    41    42    1
    11    41    43    1
    12    24     1    1
    13     1     2    1
    14     2     3   ar
    15     3     4   ar
    16     4     5   ar
    17     5     6   ar
    18     6     7    1
    19     6     8   ar
    20     8     9   ar
    21     9    10   ar
    22    10    11   ar
    23    11    12   ar
    24    12    13    1
    25    13    14    1
    26     1    15    1
    27    15    16   ar
    28    16    17   ar
    29    17    18   ar
    30    18    19   ar
    31    19    22    1
    32    22    23    1
    33    19    20   ar
    34    20    21    1
    35    29    30   ar
    36    30    31   ar
    37    31    35    1
    38    35    36    1
    39    36    37    1
    40    36    38    1
    41    31    32   ar
    42    32    27   ar
    43    12     2   ar
    44    20    15   ar
    45    10     4   ar
    46    25    26    1
@<TRIPOS>MOLECULE
*****
 43 46 0 0 0
SMALL
GASTEIGER

@<TRIPOS>ATOM
      1 C         141.3792  141.9010  164.6751 C.3     1  UNL1        0.0799
      2 C         142.2450  142.1269  163.4711 C.ar    1  UNL1        0.0374
      3 C         142.0682  141.2745  162.2496 C.ar    1  UNL1        0.0023
      4 C         142.9339  141.5004  161.0457 C.ar    1  UNL1        0.0181
      5 C         142.7571  140.6480  159.8242 C.ar    1  UNL1        0.0082
      6 C         143.6229  140.8740  158.6202 C.ar    1  UNL1        0.0347
      7 BR        143.4461  140.0216  157.3987 Br      1  UNL1       -0.0490
      8 C         144.6655  141.9523  158.6379 C.ar    1  UNL1        0.0082
      9 C         144.8423  142.8046  159.8594 C.ar    1  UNL1        0.0197
     10 C         143.9765  142.5787  161.0633 C.ar    1  UNL1        0.0844
     11 N         144.1533  143.4311  162.2848 N.ar    1  UNL1       -0.2119
     12 C         143.2875  143.2052  163.4888 C.ar    1  UNL1        0.2211
     13 O         143.4643  144.0576  164.7103 O.3     1  UNL1       -0.4563
     14 C         144.6921  143.5415  165.4004 C.3     1  UNL1        0.2542
     15 C         141.9021  141.1097  165.8371 C.ar    1  UNL1        0.0148
     16 C         142.4525  139.7315  165.6191 C.ar    1  UNL1       -0.0014
     17 C         142.9755  138.9403  166.7812 C.ar    1  UNL1        0.0029
     18 C         142.9481  139.5273  168.1613 C.ar    1  UNL1        0.0392
     19 C         142.3977  140.9055  168.3794 C.ar    1  UNL1        0.1657
     20 C         141.8747  141.6967  167.2172 C.ar    1  UNL1        0.1702
     21 F         141.3243  143.0750  167.4352 F       1  UNL1       -0.2013
     22 O         142.3703  141.4925  169.7594 O.3     1  UNL1       -0.4692
     23 C         143.2617  142.6498  170.1000 C.3     1  UNL1        0.2526
     24 C         139.9904  142.4663  164.7169 C.3     1  UNL1        0.1162
     25 O         140.5528  143.8542  164.6317 O.3     1  UNL1       -0.3820
     26 H         139.8274  144.4981  164.6388 H       1  UNL1        0.2107
     27 C         138.3051  139.1866  166.1842 C.ar    1  UNL1        0.2272
     28 C         138.8675  140.5745  166.0990 C.ar    1  UNL1        0.0559
     29 C         139.4280  141.0783  164.8021 C.ar    1  UNL1        0.0117
     30 C         139.4260  140.1942  163.5904 C.ar    1  UNL1        0.0559
     31 C         138.8636  138.8062  163.6757 C.ar    1  UNL1        0.2270
     32 N         138.3031  138.3024  164.9726 N.ar    1  UNL1       -0.1767
     33 C         136.9451  137.4140  167.5103 C.3     1  UNL1        0.2542
     34 O         137.7446  138.6828  167.4812 O.3     1  UNL1       -0.4561
     35 O         138.8617  137.9220  162.4639 O.3     1  UNL1       -0.4640
     36 C         139.9639  138.0333  161.4525 C.3     1  UNL1        0.1678
     37 C         139.6535  138.4626  160.0492 C.3     1  UNL1        0.0473
     38 C         141.3764  137.7154  161.8446 C.3     1  UNL1        0.0473
     39 C         138.6016  143.0316  164.7587 C.3     1  UNL1        0.0491
     40 C         138.2085  144.1259  163.8110 C.3     1  UNL1        0.0750
     41 N         138.5966  144.0407  162.3646 N.3     1  UNL1       -0.2702
     42 C         138.1218  142.8904  161.5271 C.3     1  UNL1        0.0897
     43 C         139.4596  145.1059  161.7556 C.3     1  UNL1        0.0897
@<TRIPOS>BOND
     1    33    34    1
     2    34    27    1
     3    27    28   ar
     4    28    29   ar
     5    29    24    1
     6    24    25    1
     7    24    39    1
     8    39    40    1
     9    40    41    1
    10    41    42    1
    11    41    43    1
    12    24     1    1
    13     1     2    1
    14     2     3   ar
    15     3     4   ar
    16     4     5   ar
    17     5     6   ar
    18     6     7    1
    19     6     8   ar
    20     8     9   ar
    21     9    10   ar
    22    10    11   ar
    23    11    12   ar
    24    12    13    1
    25    13    14    1
    26     1    15    1
    27    15    16   ar
    28    16    17   ar
    29    17    18   ar
    30    18    19   ar
    31    19    22    1
    32    22    23    1
    33    19    20   ar
    34    20    21    1
    35    29    30   ar
    36    30    31   ar
    37    31    35    1
    38    35    36    1
    39    36    37    1
    40    36    38    1
    41    31    32   ar
    42    32    27   ar
    43    12     2   ar
    44    20    15   ar
    45    10     4   ar
    46    25    26    1
@<TRIPOS>MOLECULE
*****
 43 46 0 0 0
SMALL
GASTEIGER

@<TRIPOS>ATOM
      1 C         141.5197  140.4514  162.7791 C.3     1  UNL1        0.0799
      2 C         141.8615  140.5808  164.2340 C.ar    1  UNL1        0.0374
      3 C         141.1184  141.5589  165.0949 C.ar    1  UNL1        0.0023
      4 C         141.4601  141.6882  166.5497 C.ar    1  UNL1        0.0181
      5 C         140.7170  142.6664  167.4105 C.ar    1  UNL1        0.0082
      6 C         141.0588  142.7957  168.8654 C.ar    1  UNL1        0.0347
      7 BR        140.3157  143.7738  169.7263 Br      1  UNL1       -0.0490
      8 C         142.1436  141.9469  169.4593 C.ar    1  UNL1        0.0082
      9 C         142.8866  140.9687  168.5984 C.ar    1  UNL1        0.0197
     10 C         142.5449  140.8394  167.1437 C.ar    1  UNL1        0.0844
     11 N         143.2880  139.8613  166.2828 N.ar    1  UNL1       -0.2119
     12 C         142.9462  139.7320  164.8279 C.ar    1  UNL1        0.2211
     13 O         143.6893  138.7538  163.9670 O.3     1  UNL1       -0.4563
     14 C         145.0177  139.3863  163.6747 C.3     1  UNL1        0.2542
     15 C         142.3508  141.1557  161.7480 C.ar    1  UNL1        0.0148
     16 C         142.5437  142.6412  161.8271 C.ar    1  UNL1       -0.0014
     17 C         143.3748  143.3455  160.7960 C.ar    1  UNL1        0.0029
     18 C         144.0130  142.5643  159.6857 C.ar    1  UNL1        0.0392
     19 C         143.8201  141.0789  159.6067 C.ar    1  UNL1        0.1657
     20 C         142.9889  140.3746  160.6378 C.ar    1  UNL1        0.1702
     21 F         142.7960  138.8892  160.5588 F       1  UNL1       -0.2013
     22 O         144.4582  140.2978  158.4965 O.3     1  UNL1       -0.4692
     23 C         144.8678  140.9910  157.2309 C.3     1  UNL1        0.2526
     24 C         140.3469  139.6178  162.3555 C.3     1  UNL1        0.1162
     25 O         141.0596  138.3810  162.8161 O.3     1  UNL1       -0.3820
     26 H         140.4982  137.6061  162.6571 H       1  UNL1        0.2107
     27 C         138.7048  142.3307  159.9693 C.ar    1  UNL1        0.2272
     28 C         139.4175  141.0938  160.4300 C.ar    1  UNL1        0.0559
     29 C         139.6341  140.8547  161.8948 C.ar    1  UNL1        0.0117
     30 C         139.1380  141.8523  162.8990 C.ar    1  UNL1        0.0559
     31 C         138.4253  143.0892  162.4384 C.ar    1  UNL1        0.2270
     32 N         138.2087  143.3284  160.9735 N.ar    1  UNL1       -0.1767
     33 C         137.7711  141.5459  157.6753 C.3     1  UNL1        0.2542
     34 O         138.4882  142.5699  158.5044 O.3     1  UNL1       -0.4561
     35 O         137.9292  144.0869  163.4427 O.3     1  UNL1       -0.4640
     36 C         138.8858  144.7122  164.4143 C.3     1  UNL1        0.1678
     37 C         138.4250  145.0683  165.7966 C.3     1  UNL1        0.0473
     38 C         140.3031  144.9813  164.0035 C.3     1  UNL1        0.0473
     39 C         139.1740  138.7842  161.9318 C.3     1  UNL1        0.0491
     40 C         138.2361  138.2301  162.9631 C.3     1  UNL1        0.0750
     41 N         138.5775  138.3335  164.4200 N.3     1  UNL1       -0.2702
     42 C         139.3648  137.2436  165.0851 C.3     1  UNL1        0.0897
     43 C         138.1317  139.5269  165.2120 C.3     1  UNL1        0.0897
@<TRIPOS>BOND
     1    33    34    1
     2    34    27    1
     3    27    28   ar
     4    28    29   ar
     5    29    24    1
     6    24    25    1
     7    24    39    1
     8    39    40    1
     9    40    41    1
    10    41    42    1
    11    41    43    1
    12    24     1    1
    13     1     2    1
    14     2     3   ar
    15     3     4   ar
    16     4     5   ar
    17     5     6   ar
    18     6     7    1
    19     6     8   ar
    20     8     9   ar
    21     9    10   ar
    22    10    11   ar
    23    11    12   ar
    24    12    13    1
    25    13    14    1
    26     1    15    1
    27    15    16   ar
    28    16    17   ar
    29    17    18   ar
    30    18    19   ar
    31    19    22    1
    32    22    23    1
    33    19    20   ar
    34    20    21    1
    35    29    30   ar
    36    30    31   ar
    37    31    35    1
    38    35    36    1
    39    36    37    1
    40    36    38    1
    41    31    32   ar
    42    32    27   ar
    43    12     2   ar
    44    20    15   ar
    45    10     4   ar
    46    25    26    1
@<TRIPOS>MOLECULE
*****
 43 46 0 0 0
SMALL
GASTEIGER

@<TRIPOS>ATOM
      1 C         140.5102  140.7077  162.7027 C.3     1  UNL1        0.0799
      2 C         140.3167  140.5395  164.1807 C.ar    1  UNL1        0.0374
      3 C         140.5241  141.7052  165.1017 C.ar    1  UNL1        0.0023
      4 C         140.3306  141.5371  166.5796 C.ar    1  UNL1        0.0181
      5 C         140.5379  142.7028  167.5005 C.ar    1  UNL1        0.0082
      6 C         140.3444  142.5346  168.9785 C.ar    1  UNL1        0.0347
      7 BR        140.5517  143.7003  169.8995 Br      1  UNL1       -0.0490
      8 C         139.9436  141.2008  169.5355 C.ar    1  UNL1        0.0082
      9 C         139.7363  140.0351  168.6145 C.ar    1  UNL1        0.0197
     10 C         139.9298  140.2032  167.1366 C.ar    1  UNL1        0.0844
     11 N         139.7225  139.0375  166.2157 N.ar    1  UNL1       -0.2119
     12 C         139.9160  139.2057  164.7377 C.ar    1  UNL1        0.2211
     13 O         139.7087  138.0400  163.8167 O.3     1  UNL1       -0.4563
     14 C         140.7595  137.0334  164.1809 C.3     1  UNL1        0.2542
     15 C         141.4722  139.8228  161.9668 C.ar    1  UNL1        0.0148
     16 C         142.8223  139.5323  162.5523 C.ar    1  UNL1       -0.0014
     17 C         143.7843  138.6474  161.8163 C.ar    1  UNL1        0.0029
     18 C         143.3961  138.0531  160.4948 C.ar    1  UNL1        0.0392
     19 C         142.0460  138.3437  159.9094 C.ar    1  UNL1        0.1657
     20 C         141.0840  139.2286  160.6454 C.ar    1  UNL1        0.1702
     21 F         139.7339  139.5192  160.0599 F       1  UNL1       -0.2013
     22 O         141.6579  137.7494  158.5880 O.3     1  UNL1       -0.4692
     23 C         142.7180  137.2797  157.6365 C.3     1  UNL1        0.2526
     24 C         139.7417  141.7607  161.9608 C.3     1  UNL1        0.1162
     25 O         138.4546  141.0975  162.3526 O.3     1  UNL1       -0.3820
     26 H         137.7087  141.5965  161.9847 H       1  UNL1        0.2107
     27 C         142.6119  143.3547  159.7312 C.ar    1  UNL1        0.2272
     28 C         141.3248  142.6915  160.1230 C.ar    1  UNL1        0.0559
     29 C         141.0288  142.4239  161.5689 C.ar    1  UNL1        0.0117
     30 C         142.0199  142.8196  162.6230 C.ar    1  UNL1        0.0559
     31 C         143.3070  143.4829  162.2312 C.ar    1  UNL1        0.2270
     32 N         143.6030  143.7504  160.7853 N.ar    1  UNL1       -0.1767
     33 C         142.2140  144.7453  157.5729 C.3     1  UNL1        0.2542
     34 O         142.9079  143.6223  158.2852 O.3     1  UNL1       -0.4561
     35 O         144.2981  143.8786  163.2854 O.3     1  UNL1       -0.4640
     36 C         144.6901  142.8991  164.3516 C.3     1  UNL1        0.1678
     37 C         144.1441  143.0445  165.7411 C.3     1  UNL1        0.0473
     38 C         145.6282  141.7741  164.0283 C.3     1  UNL1        0.0473
     39 C         138.9732  142.8137  161.2188 C.3     1  UNL1        0.0491
     40 C         138.2260  143.8708  161.9767 C.3     1  UNL1        0.0750
     41 N         138.9784  144.9068  162.7581 N.3     1  UNL1       -0.2702
     42 C         138.9611  144.8744  164.2576 C.3     1  UNL1        0.0897
     43 C         139.7482  145.9752  162.0398 C.3     1  UNL1        0.0897
@<TRIPOS>BOND
     1    33    34    1
     2    34    27    1
     3    27    28   ar
     4    28    29   ar
     5    29    24    1
     6    24    25    1
     7    24    39    1
     8    39    40    1
     9    40    41    1
    10    41    42    1
    11    41    43    1
    12    24     1    1
    13     1     2    1
    14     2     3   ar
    15     3     4   ar
    16     4     5   ar
    17     5     6   ar
    18     6     7    1
    19     6     8   ar
    20     8     9   ar
    21     9    10   ar
    22    10    11   ar
    23    11    12   ar
    24    12    13    1
    25    13    14    1
    26     1    15    1
    27    15    16   ar
    28    16    17   ar
    29    17    18   ar
    30    18    19   ar
    31    19    22    1
    32    22    23    1
    33    19    20   ar
    34    20    21    1
    35    29    30   ar
    36    30    31   ar
    37    31    35    1
    38    35    36    1
    39    36    37    1
    40    36    38    1
    41    31    32   ar
    42    32    27   ar
    43    12     2   ar
    44    20    15   ar
    45    10     4   ar
    46    25    26    1
@<TRIPOS>MOLECULE
*****
 43 46 0 0 0
SMALL
GASTEIGER

@<TRIPOS>ATOM
      1 C         140.6116  141.5541  158.7452 C.3     1  UNL1        0.0799
      2 C         141.2736  142.3877  159.8020 C.ar    1  UNL1        0.0374
      3 C         141.5532  141.8012  161.1540 C.ar    1  UNL1        0.0023
      4 C         142.2151  142.6348  162.2109 C.ar    1  UNL1        0.0181
      5 C         142.4947  142.0482  163.5628 C.ar    1  UNL1        0.0082
      6 C         143.1567  142.8819  164.6197 C.ar    1  UNL1        0.0347
      7 BR        143.4363  142.2954  165.9717 Br      1  UNL1       -0.0490
      8 C         143.5391  144.3019  164.3245 C.ar    1  UNL1        0.0082
      9 C         143.2595  144.8885  162.9726 C.ar    1  UNL1        0.0197
     10 C         142.5976  144.0549  161.9157 C.ar    1  UNL1        0.0844
     11 N         142.3180  144.6414  160.5638 N.ar    1  UNL1       -0.2119
     12 C         141.6560  143.8078  159.5069 C.ar    1  UNL1        0.2211
     13 O         141.3764  144.3943  158.1549 O.3     1  UNL1       -0.4563
     14 C         140.3965  145.5071  158.3817 C.3     1  UNL1        0.2542
     15 C         141.3261  140.3678  158.1688 C.ar    1  UNL1        0.0148
     16 C         140.6842  139.0127  158.2104 C.ar    1  UNL1       -0.0014
     17 C         141.3987  137.8264  157.6340 C.ar    1  UNL1        0.0029
     18 C         142.7551  137.9952  157.0161 C.ar    1  UNL1        0.0392
     19 C         143.3970  139.3503  156.9746 C.ar    1  UNL1        0.1657
     20 C         142.6824  140.5366  157.5510 C.ar    1  UNL1        0.1702
     21 F         143.3243  141.8917  157.5095 F       1  UNL1       -0.2013
     22 O         144.7533  139.5192  156.3568 O.3     1  UNL1       -0.4692
     23 C         145.0414  138.9302  155.0077 C.3     1  UNL1        0.2526
     24 C         139.2351  141.9068  158.2647 C.3     1  UNL1        0.1162
     25 O         139.7805  142.1647  156.8914 O.3     1  UNL1       -0.3820
     26 H         139.0589  142.4354  156.3025 H       1  UNL1        0.2107
     27 C         137.8446  139.9875  161.4479 C.ar    1  UNL1        0.2272
     28 C         138.3900  140.2455  160.0746 C.ar    1  UNL1        0.0559
     29 C         138.6896  141.6488  159.6380 C.ar    1  UNL1        0.0117
     30 C         138.4438  142.7943  160.5747 C.ar    1  UNL1        0.0559
     31 C         137.8984  142.5364  161.9480 C.ar    1  UNL1        0.2270
     32 N         137.5988  141.1330  162.3846 N.ar    1  UNL1       -0.1767
     33 C         138.4957  137.8620  162.7928 C.3     1  UNL1        0.2542
     34 O         137.5450  138.5840  161.8845 O.3     1  UNL1       -0.4561
     35 O         137.6525  143.6819  162.8847 O.3     1  UNL1       -0.4640
     36 C         138.7990  144.5305  163.3488 C.3     1  UNL1        0.1678
     37 C         139.3926  144.3107  164.7087 C.3     1  UNL1        0.0473
     38 C         139.3520  145.5991  162.4529 C.3     1  UNL1        0.0473
     39 C         137.8586  142.2595  157.7843 C.3     1  UNL1        0.0491
     40 C         137.2015  141.4331  156.7187 C.3     1  UNL1        0.0750
     41 N         136.3004  142.0856  155.7126 N.3     1  UNL1       -0.2702
     42 C         136.6488  143.4347  155.1573 C.3     1  UNL1        0.0897
     43 C         135.0507  141.3889  155.2618 C.3     1  UNL1        0.0897
@<TRIPOS>BOND
     1    33    34    1
     2    34    27    1
     3    27    28   ar
     4    28    29   ar
     5    29    24    1
     6    24    25    1
     7    24    39    1
     8    39    40    1
     9    40    41    1
    10    41    42    1
    11    41    43    1
    12    24     1    1
    13     1     2    1
    14     2     3   ar
    15     3     4   ar
    16     4     5   ar
    17     5     6   ar
    18     6     7    1
    19     6     8   ar
    20     8     9   ar
    21     9    10   ar
    22    10    11   ar
    23    11    12   ar
    24    12    13    1
    25    13    14    1
    26     1    15    1
    27    15    16   ar
    28    16    17   ar
    29    17    18   ar
    30    18    19   ar
    31    19    22    1
    32    22    23    1
    33    19    20   ar
    34    20    21    1
    35    29    30   ar
    36    30    31   ar
    37    31    35    1
    38    35    36    1
    39    36    37    1
    40    36    38    1
    41    31    32   ar
    42    32    27   ar
    43    12     2   ar
    44    20    15   ar
    45    10     4   ar
    46    25    26    1
@<TRIPOS>MOLECULE
*****
 43 46 0 0 0
SMALL
GASTEIGER

@<TRIPOS>ATOM
      1 C         140.4198  141.2433  161.3636 C.3     1  UNL1        0.0799
      2 C         140.1251  140.8631  162.7844 C.ar    1  UNL1        0.0374
      3 C         141.1503  141.1026  163.8529 C.ar    1  UNL1        0.0023
      4 C         140.8556  140.7225  165.2737 C.ar    1  UNL1        0.0181
      5 C         141.8808  140.9619  166.3422 C.ar    1  UNL1        0.0082
      6 C         141.5860  140.5817  167.7630 C.ar    1  UNL1        0.0347
      7 BR        142.6112  140.8211  168.8315 Br      1  UNL1       -0.0490
      8 C         140.2662  139.9622  168.1153 C.ar    1  UNL1        0.0082
      9 C         139.2410  139.7228  167.0468 C.ar    1  UNL1        0.0197
     10 C         139.5357  140.1029  165.6260 C.ar    1  UNL1        0.0844
     11 N         138.5105  139.8635  164.5576 N.ar    1  UNL1       -0.2119
     12 C         138.8052  140.2436  163.1367 C.ar    1  UNL1        0.2211
     13 O         137.7800  140.0042  162.0682 O.3     1  UNL1       -0.4563
     14 C         137.7513  138.5208  161.8478 C.3     1  UNL1        0.2542
     15 C         140.7494  140.1819  160.3562 C.ar    1  UNL1        0.0148
     16 C         142.0044  139.3733  160.5020 C.ar    1  UNL1       -0.0014
     17 C         142.3340  138.3119  159.4947 C.ar    1  UNL1        0.0029
     18 C         141.4087  138.0592  158.3414 C.ar    1  UNL1        0.0392
     19 C         140.1538  138.8679  158.1955 C.ar    1  UNL1        0.1657
     20 C         139.8242  139.9293  159.2030 C.ar    1  UNL1        0.1702
     21 F         138.5693  140.7379  159.0572 F       1  UNL1       -0.2013
     22 O         139.2285  138.6152  157.0423 O.3     1  UNL1       -0.4692
     23 C         139.5986  137.6130  155.9895 C.3     1  UNL1        0.2526
     24 C         140.3849  142.6848  160.9502 C.3     1  UNL1        0.1162
     25 O         138.9307  142.7532  161.3115 O.3     1  UNL1       -0.3820
     26 H         138.5959  143.6467  161.1374 H       1  UNL1        0.2107
     27 C         143.7145  142.6420  158.7911 C.ar    1  UNL1        0.2272
     28 C         142.2603  142.7104  159.1524 C.ar    1  UNL1        0.0559
     29 C         141.8391  142.6164  160.5890 C.ar    1  UNL1        0.0117
     30 C         142.8722  142.4540  161.6642 C.ar    1  UNL1        0.0559
     31 C         144.3265  142.3856  161.3030 C.ar    1  UNL1        0.2270
     32 N         144.7476  142.4796  159.8664 N.ar    1  UNL1       -0.1767
     33 C         145.4025  142.0742  156.8994 C.3     1  UNL1        0.2542
     34 O         144.1356  142.7361  157.3545 O.3     1  UNL1       -0.4561
     35 O         145.3596  142.2232  162.3784 O.3     1  UNL1       -0.4640
     36 C         144.9465  141.8037  163.7580 C.3     1  UNL1        0.1678
     37 C         144.8513  140.3467  164.1018 C.3     1  UNL1        0.0473
     38 C         144.6287  142.8411  164.7938 C.3     1  UNL1        0.0473
     39 C         140.3500  144.1263  160.5369 C.3     1  UNL1        0.0491
     40 C         140.6551  145.2011  161.5378 C.3     1  UNL1        0.0750
     41 N         140.3725  144.9728  162.9931 N.3     1  UNL1       -0.2702
     42 C         141.5055  144.7606  163.9528 C.3     1  UNL1        0.0897
     43 C         138.9567  144.9566  163.4887 C.3     1  UNL1        0.0897
@<TRIPOS>BOND
     1    33    34    1
     2    34    27    1
     3    27    28   ar
     4    28    29   ar
     5    29    24    1
     6    24    25    1
     7    24    39    1
     8    39    40    1
     9    40    41    1
    10    41    42    1
    11    41    43    1
    12    24     1    1
    13     1     2    1
    14     2     3   ar
    15     3     4   ar
    16     4     5   ar
    17     5     6   ar
    18     6     7    1
    19     6     8   ar
    20     8     9   ar
    21     9    10   ar
    22    10    11   ar
    23    11    12   ar
    24    12    13    1
    25    13    14    1
    26     1    15    1
    27    15    16   ar
    28    16    17   ar
    29    17    18   ar
    30    18    19   ar
    31    19    22    1
    32    22    23    1
    33    19    20   ar
    34    20    21    1
    35    29    30   ar
    36    30    31   ar
    37    31    35    1
    38    35    36    1
    39    36    37    1
    40    36    38    1
    41    31    32   ar
    42    32    27   ar
    43    12     2   ar
    44    20    15   ar
    45    10     4   ar
    46    25    26    1
@<TRIPOS>MOLECULE
*****
 43 46 0 0 0
SMALL
GASTEIGER

@<TRIPOS>ATOM
      1 C         140.9808  140.3808  161.3115 C.3     1  UNL1        0.0799
      2 C         140.4532  140.2137  162.7058 C.ar    1  UNL1        0.0374
      3 C         141.3896  140.2838  163.8755 C.ar    1  UNL1        0.0023
      4 C         140.8621  140.1167  165.2696 C.ar    1  UNL1        0.0181
      5 C         141.7986  140.1869  166.4393 C.ar    1  UNL1        0.0082
      6 C         141.2710  140.0197  167.8335 C.ar    1  UNL1        0.0347
      7 BR        142.2074  140.0899  169.0032 Br      1  UNL1       -0.0490
      8 C         139.8070  139.7825  168.0580 C.ar    1  UNL1        0.0082
      9 C         138.8705  139.7123  166.8883 C.ar    1  UNL1        0.0197
     10 C         139.3981  139.8795  165.4942 C.ar    1  UNL1        0.0844
     11 N         138.4616  139.8093  164.3245 N.ar    1  UNL1       -0.2119
     12 C         138.9892  139.9764  162.9303 C.ar    1  UNL1        0.2211
     13 O         138.0528  139.9063  161.7606 O.3     1  UNL1       -0.4563
     14 C         137.6518  138.4661  161.6378 C.3     1  UNL1        0.2542
     15 C         140.4814  141.5026  160.4501 C.ar    1  UNL1        0.0148
     16 C         139.8150  141.2028  159.1401 C.ar    1  UNL1       -0.0014
     17 C         139.3156  142.3246  158.2787 C.ar    1  UNL1        0.0029
     18 C         139.4826  143.7463  158.7272 C.ar    1  UNL1        0.0392
     19 C         140.1489  144.0460  160.0372 C.ar    1  UNL1        0.1657
     20 C         140.6483  142.9242  160.8987 C.ar    1  UNL1        0.1702
     21 F         141.3146  143.2239  162.2087 F       1  UNL1       -0.2013
     22 O         140.3158  145.4676  160.4858 O.3     1  UNL1       -0.4692
     23 C         139.6772  145.9314  161.7613 C.3     1  UNL1        0.2526
     24 C         142.0078  139.4261  160.7788 C.3     1  UNL1        0.1162
     25 O         141.0024  138.3142  160.8332 O.3     1  UNL1       -0.3820
     26 H         141.4118  137.4925  160.5202 H       1  UNL1        0.2107
     27 C         144.4296  142.2253  159.3473 C.ar    1  UNL1        0.2272
     28 C         143.4242  141.1134  159.4017 C.ar    1  UNL1        0.0559
     29 C         143.0132  140.5380  160.7245 C.ar    1  UNL1        0.0117
     30 C         143.6076  141.0743  161.9929 C.ar    1  UNL1        0.0559
     31 C         144.6130  142.1862  161.9385 C.ar    1  UNL1        0.2270
     32 N         145.0240  142.7617  160.6157 N.ar    1  UNL1       -0.1767
     33 C         145.7708  142.0359  157.1303 C.3     1  UNL1        0.2542
     34 O         144.8406  142.8008  158.0244 O.3     1  UNL1       -0.4561
     35 O         145.2074  142.7226  163.2071 O.3     1  UNL1       -0.4640
     36 C         144.3585  143.5148  164.1567 C.3     1  UNL1        0.1678
     37 C         143.8027  144.8431  163.7364 C.3     1  UNL1        0.0473
     38 C         144.0654  142.9786  165.5267 C.3     1  UNL1        0.0473
     39 C         143.0348  138.4714  160.2461 C.3     1  UNL1        0.0491
     40 C         142.6717  137.5143  159.1497 C.3     1  UNL1        0.0750
     41 N         142.1685  138.0347  157.8360 N.3     1  UNL1       -0.2702
     42 C         143.1248  138.6466  156.8557 C.3     1  UNL1        0.0897
     43 C         140.7088  137.9433  157.5026 C.3     1  UNL1        0.0897
@<TRIPOS>BOND
     1    33    34    1
     2    34    27    1
     3    27    28   ar
     4    28    29   ar
     5    29    24    1
     6    24    25    1
     7    24    39    1
     8    39    40    1
     9    40    41    1
    10    41    42    1
    11    41    43    1
    12    24     1    1
    13     1     2    1
    14     2     3   ar
    15     3     4   ar
    16     4     5   ar
    17     5     6   ar
    18     6     7    1
    19     6     8   ar
    20     8     9   ar
    21     9    10   ar
    22    10    11   ar
    23    11    12   ar
    24    12    13    1
    25    13    14    1
    26     1    15    1
    27    15    16   ar
    28    16    17   ar
    29    17    18   ar
    30    18    19   ar
    31    19    22    1
    32    22    23    1
    33    19    20   ar
    34    20    21    1
    35    29    30   ar
    36    30    31   ar
    37    31    35    1
    38    35    36    1
    39    36    37    1
    40    36    38    1
    41    31    32   ar
    42    32    27   ar
    43    12     2   ar
    44    20    15   ar
    45    10     4   ar
    46    25    26    1
