@<TRIPOS>MOLECULE
*****
 24 26 0 0 0
SMALL
GASTEIGER

@<TRIPOS>ATOM
      1 N         138.0945  140.2201  163.9569 N.ar    1  UNL1       -0.2244
      2 C         138.0759  141.7021  164.1878 C.ar    1  UNL1        0.1329
      3 C         137.6930  142.3673  162.8989 C.ar    1  UNL1        0.1709
      4 N         137.4750  141.2963  161.8715 N.ar    1  UNL1       -0.1138
      5 N         137.7231  139.9693  162.5253 N.ar    1  UNL1       -0.0622
      6 N         137.5528  143.8441  162.6765 N.pl3   1  UNL1       -0.3142
      7 H         136.6770  144.2249  162.4375 H       1  UNL1        0.1483
      8 C         138.7469  144.7406  162.8184 C.3     1  UNL1        0.1058
      9 C         139.4305  144.8746  164.1468 C.3     1  UNL1        0.0936
     10 N         140.8808  144.5165  164.2835 N.3     1  UNL1       -0.2712
     11 C         141.2815  143.2893  165.0473 C.3     1  UNL1        0.0721
     12 C         142.7318  142.9312  165.1840 C.3     1  UNL1        0.0174
     13 C         143.7812  143.8004  164.5569 C.3     1  UNL1        0.0029
     14 C         143.3804  145.0276  163.7931 C.3     1  UNL1        0.0174
     15 C         141.9302  145.3857  163.6564 C.3     1  UNL1        0.0721
     16 C         138.4262  139.1728  164.9781 C.3     1  UNL1        0.1557
     17 CL        142.7315  140.1917  169.0310 Cl      1  UNL1       -0.0814
     18 C         141.6552  139.9370  168.0178 C.ar    1  UNL1        0.0682
     19 C         142.0218  139.5730  166.6096 C.ar    1  UNL1        0.0120
     20 C         140.9454  139.3183  165.5964 C.ar    1  UNL1       -0.0014
     21 C         139.5025  139.4275  165.9913 C.ar    1  UNL1        0.0031
     22 C         139.1360  139.7914  167.3996 C.ar    1  UNL1        0.0099
     23 C         140.2123  140.0462  168.4128 C.ar    1  UNL1        0.0679
     24 CL        139.8457  140.4101  169.8211 Cl      1  UNL1       -0.0814
@<TRIPOS>BOND
     1    17    18    1
     2    18    19   ar
     3    19    20   ar
     4    20    21   ar
     5    21    16    1
     6    16     1    1
     7     1     2   ar
     8     2     3   ar
     9     3     6    1
    10     6     8    1
    11     8     9    1
    12     9    10    1
    13    10    11    1
    14    11    12    1
    15    12    13    1
    16    13    14    1
    17    14    15    1
    18     3     4   ar
    19     4     5   ar
    20    21    22   ar
    21    22    23   ar
    22    23    24    1
    23    23    18   ar
    24     5     1   ar
    25    15    10    1
    26     6     7    1
@<TRIPOS>MOLECULE
*****
 24 26 0 0 0
SMALL
GASTEIGER

@<TRIPOS>ATOM
      1 N         138.8673  144.0825  162.5120 N.ar    1  UNL1       -0.2244
      2 C         140.3273  143.7385  162.5288 C.ar    1  UNL1        0.1329
      3 C         141.0942  144.9503  162.0887 C.ar    1  UNL1        0.1709
      4 N         140.1081  146.0432  161.7999 N.ar    1  UNL1       -0.1138
      5 N         138.7319  145.5069  162.0615 N.ar    1  UNL1       -0.0622
      6 N         142.5852  145.0514  161.9601 N.pl3   1  UNL1       -0.3142
      7 H         142.9832  145.4719  161.1638 H       1  UNL1        0.1483
      8 C         143.4699  144.5118  163.0445 C.3     1  UNL1        0.1058
      9 C         144.3706  143.3450  162.7665 C.3     1  UNL1        0.0936
     10 N         144.1764  142.0546  163.5062 N.3     1  UNL1       -0.2712
     11 C         142.8864  141.7883  164.2238 C.3     1  UNL1        0.0721
     12 C         142.6922  140.4979  164.9635 C.3     1  UNL1        0.0174
     13 C         143.7880  139.4738  164.9856 C.3     1  UNL1        0.0029
     14 C         145.0780  139.7401  164.2679 C.3     1  UNL1        0.0174
     15 C         145.2722  141.0305  163.5282 C.3     1  UNL1        0.0721
     16 C         137.7407  143.1635  162.8809 C.3     1  UNL1        0.1557
     17 CL        138.9175  137.6966  165.0551 Cl      1  UNL1       -0.0814
     18 C         138.6233  139.0633  164.5116 C.ar    1  UNL1        0.0682
     19 C         138.6727  140.2575  165.4179 C.ar    1  UNL1        0.0120
     20 C         138.3785  141.6242  164.8743 C.ar    1  UNL1       -0.0014
     21 C         138.0349  141.7968  163.4244 C.ar    1  UNL1        0.0031
     22 C         137.9855  140.6026  162.5181 C.ar    1  UNL1        0.0099
     23 C         138.2798  139.2358  163.0617 C.ar    1  UNL1        0.0679
     24 CL        138.2304  138.0416  162.1553 Cl      1  UNL1       -0.0814
@<TRIPOS>BOND
     1    17    18    1
     2    18    19   ar
     3    19    20   ar
     4    20    21   ar
     5    21    16    1
     6    16     1    1
     7     1     2   ar
     8     2     3   ar
     9     3     6    1
    10     6     8    1
    11     8     9    1
    12     9    10    1
    13    10    11    1
    14    11    12    1
    15    12    13    1
    16    13    14    1
    17    14    15    1
    18     3     4   ar
    19     4     5   ar
    20    21    22   ar
    21    22    23   ar
    22    23    24    1
    23    23    18   ar
    24     5     1   ar
    25    15    10    1
    26     6     7    1
@<TRIPOS>MOLECULE
*****
 24 26 0 0 0
SMALL
GASTEIGER

@<TRIPOS>ATOM
      1 N         138.8796  144.1768  162.7188 N.ar    1  UNL1       -0.2244
      2 C         140.3480  143.8855  162.8132 C.ar    1  UNL1        0.1329
      3 C         141.0905  145.0543  162.2362 C.ar    1  UNL1        0.1709
      4 N         140.0809  146.0679  161.7852 N.ar    1  UNL1       -0.1138
      5 N         138.7145  145.5256  162.0835 N.ar    1  UNL1       -0.0622
      6 N         142.5808  145.1863  162.1291 N.pl3   1  UNL1       -0.3142
      7 H         142.9763  145.7333  161.4124 H       1  UNL1        0.1483
      8 C         143.4686  144.4848  163.1138 C.3     1  UNL1        0.1058
      9 C         144.2578  143.2824  162.6881 C.3     1  UNL1        0.0936
     10 N         144.0896  141.9798  163.4128 N.3     1  UNL1       -0.2712
     11 C         145.2518  141.0410  163.5477 C.3     1  UNL1        0.0721
     12 C         145.0835  139.7385  164.2723 C.3     1  UNL1        0.0174
     13 C         143.7531  139.3747  164.8621 C.3     1  UNL1        0.0029
     14 C         142.5910  140.3135  164.7272 C.3     1  UNL1        0.0174
     15 C         142.7592  141.6161  164.0025 C.3     1  UNL1        0.0721
     16 C         137.7710  143.2773  163.1789 C.3     1  UNL1        0.1557
     17 CL        138.9693  137.6250  164.7965 Cl      1  UNL1       -0.0814
     18 C         138.6697  139.0381  164.3921 C.ar    1  UNL1        0.0682
     19 C         138.2528  139.3428  162.9838 C.ar    1  UNL1        0.0120
     20 C         137.9533  140.7559  162.5795 C.ar    1  UNL1       -0.0014
     21 C         138.0705  141.8642  163.5833 C.ar    1  UNL1        0.0031
     22 C         138.4874  141.5595  164.9916 C.ar    1  UNL1        0.0099
     23 C         138.7870  140.1464  165.3960 C.ar    1  UNL1        0.0679
     24 CL        139.2038  139.8417  166.8044 Cl      1  UNL1       -0.0814
@<TRIPOS>BOND
     1    17    18    1
     2    18    19   ar
     3    19    20   ar
     4    20    21   ar
     5    21    16    1
     6    16     1    1
     7     1     2   ar
     8     2     3   ar
     9     3     6    1
    10     6     8    1
    11     8     9    1
    12     9    10    1
    13    10    11    1
    14    11    12    1
    15    12    13    1
    16    13    14    1
    17    14    15    1
    18     3     4   ar
    19     4     5   ar
    20    21    22   ar
    21    22    23   ar
    22    23    24    1
    23    23    18   ar
    24     5     1   ar
    25    15    10    1
    26     6     7    1
@<TRIPOS>MOLECULE
*****
 24 26 0 0 0
SMALL
GASTEIGER

@<TRIPOS>ATOM
      1 N         138.6856  138.9232  164.7829 N.ar    1  UNL1       -0.2244
      2 C         138.1290  140.0795  164.0062 C.ar    1  UNL1        0.1329
      3 C         137.9446  139.6373  162.5847 C.ar    1  UNL1        0.1709
      4 N         138.3872  138.2077  162.4829 N.ar    1  UNL1       -0.1138
      5 N         138.8451  137.7663  163.8414 N.ar    1  UNL1       -0.0622
      6 N         137.4112  140.4772  161.4622 N.pl3   1  UNL1       -0.3142
      7 H         136.4479  140.4735  161.2594 H       1  UNL1        0.1483
      8 C         138.3456  141.3228  160.6488 C.3     1  UNL1        0.1058
      9 C         138.5626  142.7621  161.0112 C.3     1  UNL1        0.0936
     10 N         138.8210  143.1455  162.4382 N.3     1  UNL1       -0.2712
     11 C         137.7361  143.7888  163.2502 C.3     1  UNL1        0.0721
     12 C         137.9945  144.1721  164.6772 C.3     1  UNL1        0.0174
     13 C         139.3378  143.9122  165.2922 C.3     1  UNL1        0.0029
     14 C         140.4226  143.2689  164.4802 C.3     1  UNL1        0.0174
     15 C         140.1642  142.8855  163.0532 C.3     1  UNL1        0.0721
     16 C         139.0233  138.9236  166.2443 C.3     1  UNL1        0.1557
     17 CL        143.4112  142.4570  168.3085 Cl      1  UNL1       -0.0814
     18 C         142.3142  141.5736  167.7925 C.ar    1  UNL1        0.0682
     19 C         142.6488  140.3672  166.9663 C.ar    1  UNL1        0.0120
     20 C         141.5518  139.4839  166.4503 C.ar    1  UNL1       -0.0014
     21 C         140.1203  139.8069  166.7604 C.ar    1  UNL1        0.0031
     22 C         139.7857  141.0134  167.5865 C.ar    1  UNL1        0.0099
     23 C         140.8827  141.8967  168.1026 C.ar    1  UNL1        0.0679
     24 CL        140.5480  143.1032  168.9287 Cl      1  UNL1       -0.0814
@<TRIPOS>BOND
     1    17    18    1
     2    18    19   ar
     3    19    20   ar
     4    20    21   ar
     5    21    16    1
     6    16     1    1
     7     1     2   ar
     8     2     3   ar
     9     3     6    1
    10     6     8    1
    11     8     9    1
    12     9    10    1
    13    10    11    1
    14    11    12    1
    15    12    13    1
    16    13    14    1
    17    14    15    1
    18     3     4   ar
    19     4     5   ar
    20    21    22   ar
    21    22    23   ar
    22    23    24    1
    23    23    18   ar
    24     5     1   ar
    25    15    10    1
    26     6     7    1
@<TRIPOS>MOLECULE
*****
 24 26 0 0 0
SMALL
GASTEIGER

@<TRIPOS>ATOM
      1 N         138.9108  144.5190  162.6199 N.ar    1  UNL1       -0.2244
      2 C         140.1996  143.9795  162.0740 C.ar    1  UNL1        0.1329
      3 C         140.7411  144.9769  161.0931 C.ar    1  UNL1        0.1709
      4 N         139.7870  146.1329  161.0329 N.ar    1  UNL1       -0.1138
      5 N         138.6558  145.8499  161.9765 N.ar    1  UNL1       -0.0622
      6 N         142.0133  144.8421  160.3099 N.pl3   1  UNL1       -0.3142
      7 H         142.4694  145.6455  159.9698 H       1  UNL1        0.1483
      8 C         142.5905  143.4833  160.0451 C.3     1  UNL1        0.1058
      9 C         143.7872  143.0131  160.8177 C.3     1  UNL1        0.0936
     10 N         143.7557  143.0045  162.3173 N.3     1  UNL1       -0.2712
     11 C         143.4160  141.7422  163.0531 C.3     1  UNL1        0.0721
     12 C         143.3845  141.7336  164.5528 C.3     1  UNL1        0.0174
     13 C         143.6929  142.9872  165.3166 C.3     1  UNL1        0.0029
     14 C         144.0326  144.2494  164.5808 C.3     1  UNL1        0.0174
     15 C         144.0640  144.2581  163.0812 C.3     1  UNL1        0.0721
     16 C         138.0315  143.8459  163.6317 C.3     1  UNL1        0.1557
     17 CL        140.3995  139.9919  167.5736 Cl      1  UNL1       -0.0814
     18 C         139.8075  140.9554  166.5882 C.ar    1  UNL1        0.0682
     19 C         140.2679  142.3828  166.5655 C.ar    1  UNL1        0.0120
     20 C         139.6759  143.3463  165.5800 C.ar    1  UNL1       -0.0014
     21 C         138.6235  142.8824  164.6172 C.ar    1  UNL1        0.0031
     22 C         138.1630  141.4550  164.6398 C.ar    1  UNL1        0.0099
     23 C         138.7550  140.4915  165.6253 C.ar    1  UNL1        0.0679
     24 CL        138.2945  139.0641  165.6479 Cl      1  UNL1       -0.0814
@<TRIPOS>BOND
     1    17    18    1
     2    18    19   ar
     3    19    20   ar
     4    20    21   ar
     5    21    16    1
     6    16     1    1
     7     1     2   ar
     8     2     3   ar
     9     3     6    1
    10     6     8    1
    11     8     9    1
    12     9    10    1
    13    10    11    1
    14    11    12    1
    15    12    13    1
    16    13    14    1
    17    14    15    1
    18     3     4   ar
    19     4     5   ar
    20    21    22   ar
    21    22    23   ar
    22    23    24    1
    23    23    18   ar
    24     5     1   ar
    25    15    10    1
    26     6     7    1
@<TRIPOS>MOLECULE
*****
 24 26 0 0 0
SMALL
GASTEIGER

@<TRIPOS>ATOM
      1 N         139.0791  142.4341  163.8913 N.ar    1  UNL1       -0.2244
      2 C         139.3717  140.9734  163.7162 C.ar    1  UNL1        0.1329
      3 C         138.2207  140.3551  162.9793 C.ar    1  UNL1        0.1709
      4 N         137.2167  141.4338  162.6989 N.ar    1  UNL1       -0.1138
      5 N         137.7472  142.7187  163.2626 N.ar    1  UNL1       -0.0622
      6 N         138.0956  138.9117  162.5909 N.pl3   1  UNL1       -0.3142
      7 H         137.4636  138.6449  161.8849 H       1  UNL1        0.1483
      8 C         138.9336  137.8748  163.2783 C.3     1  UNL1        0.1058
      9 C         140.3147  137.5734  162.7766 C.3     1  UNL1        0.0936
     10 N         141.5118  138.0757  163.5280 N.3     1  UNL1       -0.2712
     11 C         142.7008  138.6013  162.7796 C.3     1  UNL1        0.0721
     12 C         143.8979  139.1036  163.5310 C.3     1  UNL1        0.0174
     13 C         143.9061  139.0802  165.0309 C.3     1  UNL1        0.0029
     14 C         142.7171  138.5546  165.7792 C.3     1  UNL1        0.0174
     15 C         141.5200  138.0523  165.0278 C.3     1  UNL1        0.0721
     16 C         139.9631  143.4347  164.5750 C.3     1  UNL1        0.1557
     17 CL        143.3758  141.7480  169.2127 Cl      1  UNL1       -0.0814
     18 C         142.5226  142.1696  168.0533 C.ar    1  UNL1        0.0682
     19 C         143.1174  142.2638  166.6795 C.ar    1  UNL1        0.0120
     20 C         142.2642  142.6854  165.5201 C.ar    1  UNL1       -0.0014
     21 C         140.8163  143.0130  165.7344 C.ar    1  UNL1        0.0031
     22 C         140.2214  142.9189  167.1082 C.ar    1  UNL1        0.0099
     23 C         141.0746  142.4972  168.2676 C.ar    1  UNL1        0.0679
     24 CL        140.4797  142.4031  169.6415 Cl      1  UNL1       -0.0814
@<TRIPOS>BOND
     1    17    18    1
     2    18    19   ar
     3    19    20   ar
     4    20    21   ar
     5    21    16    1
     6    16     1    1
     7     1     2   ar
     8     2     3   ar
     9     3     6    1
    10     6     8    1
    11     8     9    1
    12     9    10    1
    13    10    11    1
    14    11    12    1
    15    12    13    1
    16    13    14    1
    17    14    15    1
    18     3     4   ar
    19     4     5   ar
    20    21    22   ar
    21    22    23   ar
    22    23    24    1
    23    23    18   ar
    24     5     1   ar
    25    15    10    1
    26     6     7    1
@<TRIPOS>MOLECULE
*****
 24 26 0 0 0
SMALL
GASTEIGER

@<TRIPOS>ATOM
      1 N         139.2565  143.1910  163.4407 N.ar    1  UNL1       -0.2244
      2 C         139.4627  141.9709  162.5929 C.ar    1  UNL1        0.1329
      3 C         138.4571  142.0042  161.4802 C.ar    1  UNL1        0.1709
      4 N         137.6295  143.2450  161.6405 N.ar    1  UNL1       -0.1138
      5 N         138.1235  143.9784  162.8521 N.ar    1  UNL1       -0.0622
      6 N         138.3058  140.9772  160.3975 N.pl3   1  UNL1       -0.3142
      7 H         138.4980  141.2162  159.4620 H       1  UNL1        0.1483
      8 C         137.8618  139.5861  160.7402 C.3     1  UNL1        0.1058
      9 C         138.8755  138.4907  160.8898 C.3     1  UNL1        0.0936
     10 N         139.5145  138.2370  162.2230 N.3     1  UNL1       -0.2712
     11 C         138.7247  138.4347  163.4829 C.3     1  UNL1        0.0721
     12 C         139.3637  138.1810  164.8161 C.3     1  UNL1        0.0174
     13 C         140.7923  137.7296  164.8894 C.3     1  UNL1        0.0029
     14 C         141.5820  137.5319  163.6295 C.3     1  UNL1        0.0174
     15 C         140.9430  137.7856  162.2963 C.3     1  UNL1        0.0721
     16 C         140.0449  143.5591  164.6626 C.3     1  UNL1        0.1557
     17 CL        142.7467  139.2835  167.8904 Cl      1  UNL1       -0.0814
     18 C         142.0712  140.3524  167.0835 C.ar    1  UNL1        0.0682
     19 C         142.8447  141.1098  166.0452 C.ar    1  UNL1        0.0120
     20 C         142.1692  142.1787  165.2383 C.ar    1  UNL1       -0.0014
     21 C         140.7203  142.4902  165.4695 C.ar    1  UNL1        0.0031
     22 C         139.9468  141.7328  166.5078 C.ar    1  UNL1        0.0099
     23 C         140.6223  140.6639  167.3147 C.ar    1  UNL1        0.0679
     24 CL        139.8487  139.9064  168.3530 Cl      1  UNL1       -0.0814
@<TRIPOS>BOND
     1    17    18    1
     2    18    19   ar
     3    19    20   ar
     4    20    21   ar
     5    21    16    1
     6    16     1    1
     7     1     2   ar
     8     2     3   ar
     9     3     6    1
    10     6     8    1
    11     8     9    1
    12     9    10    1
    13    10    11    1
    14    11    12    1
    15    12    13    1
    16    13    14    1
    17    14    15    1
    18     3     4   ar
    19     4     5   ar
    20    21    22   ar
    21    22    23   ar
    22    23    24    1
    23    23    18   ar
    24     5     1   ar
    25    15    10    1
    26     6     7    1
@<TRIPOS>MOLECULE
*****
 24 26 0 0 0
SMALL
GASTEIGER

@<TRIPOS>ATOM
      1 N         142.2126  138.2118  164.4648 N.ar    1  UNL1       -0.2244
      2 C         140.7712  137.8428  164.2738 C.ar    1  UNL1        0.1329
      3 C         140.4754  137.8749  162.8035 C.ar    1  UNL1        0.1709
      4 N         141.7340  138.2636  162.0859 N.ar    1  UNL1       -0.1138
      5 N         142.8076  138.4718  163.1125 N.ar    1  UNL1       -0.0622
      6 N         139.1532  137.5714  162.1634 N.pl3   1  UNL1       -0.3142
      7 H         139.0124  136.7093  161.7094 H       1  UNL1        0.1483
      8 C         138.0457  138.5816  162.2148 C.3     1  UNL1        0.1058
      9 C         138.2676  139.9658  161.6813 C.3     1  UNL1        0.0936
     10 N         138.2621  141.1394  162.6154 N.3     1  UNL1       -0.2712
     11 C         137.8571  142.4943  162.1150 C.3     1  UNL1        0.0721
     12 C         137.8516  143.6680  163.0491 C.3     1  UNL1        0.0174
     13 C         138.2511  143.4868  164.4836 C.3     1  UNL1        0.0029
     14 C         138.6561  142.1319  164.9839 C.3     1  UNL1        0.0174
     15 C         138.6616  140.9583  164.0498 C.3     1  UNL1        0.0721
     16 C         142.9325  138.3044  165.7774 C.3     1  UNL1        0.1557
     17 CL        141.8498  142.9041  169.4748 Cl      1  UNL1       -0.0814
     18 C         142.1205  141.7542  168.5504 C.ar    1  UNL1        0.0682
     19 C         142.0201  141.9454  167.0661 C.ar    1  UNL1        0.0120
     20 C         142.2908  140.7955  166.1418 C.ar    1  UNL1       -0.0014
     21 C         142.6618  139.4544  166.7018 C.ar    1  UNL1        0.0031
     22 C         142.7622  139.2632  168.1861 C.ar    1  UNL1        0.0099
     23 C         142.4915  140.4131  169.1105 C.ar    1  UNL1        0.0679
     24 CL        142.5919  140.2218  170.5949 Cl      1  UNL1       -0.0814
@<TRIPOS>BOND
     1    17    18    1
     2    18    19   ar
     3    19    20   ar
     4    20    21   ar
     5    21    16    1
     6    16     1    1
     7     1     2   ar
     8     2     3   ar
     9     3     6    1
    10     6     8    1
    11     8     9    1
    12     9    10    1
    13    10    11    1
    14    11    12    1
    15    12    13    1
    16    13    14    1
    17    14    15    1
    18     3     4   ar
    19     4     5   ar
    20    21    22   ar
    21    22    23   ar
    22    23    24    1
    23    23    18   ar
    24     5     1   ar
    25    15    10    1
    26     6     7    1
@<TRIPOS>MOLECULE
*****
 24 26 0 0 0
SMALL
GASTEIGER

@<TRIPOS>ATOM
      1 N         143.1223  140.2773  164.6092 N.ar    1  UNL1       -0.2244
      2 C         143.6962  141.6627  164.6458 C.ar    1  UNL1        0.1329
      3 C         143.6405  142.2244  163.2560 C.ar    1  UNL1        0.1709
      4 N         143.0322  141.1861  162.3605 N.ar    1  UNL1       -0.1138
      5 N         142.7119  139.9828  163.1968 N.ar    1  UNL1       -0.0622
      6 N         144.1106  143.5854  162.8355 N.pl3   1  UNL1       -0.3142
      7 H         145.0664  143.7437  162.6605 H       1  UNL1        0.1483
      8 C         143.1245  144.7051  162.6817 C.3     1  UNL1        0.1058
      9 C         142.2773  145.1237  163.8467 C.3     1  UNL1        0.0936
     10 N         140.8856  144.5841  163.9943 N.3     1  UNL1       -0.2712
     11 C         140.5869  143.5575  165.0465 C.3     1  UNL1        0.0721
     12 C         139.1951  143.0178  165.1942 C.3     1  UNL1        0.0174
     13 C         138.1020  143.5047  164.2895 C.3     1  UNL1        0.0029
     14 C         138.4008  144.5312  163.2374 C.3     1  UNL1        0.0174
     15 C         139.7925  145.0709  163.0898 C.3     1  UNL1        0.0721
     16 C         142.9832  139.3494  165.7795 C.3     1  UNL1        0.1557
     17 CL        138.7989  140.3895  169.9520 Cl      1  UNL1       -0.0814
     18 C         139.8449  140.1295  168.9089 C.ar    1  UNL1        0.0682
     19 C         139.4418  139.9093  167.4810 C.ar    1  UNL1        0.0120
     20 C         140.4879  139.6493  166.4379 C.ar    1  UNL1       -0.0014
     21 C         141.9371  139.6094  166.8226 C.ar    1  UNL1        0.0031
     22 C         142.3402  139.8296  168.2505 C.ar    1  UNL1        0.0099
     23 C         141.2942  140.0897  169.2937 C.ar    1  UNL1        0.0679
     24 CL        141.6974  140.3099  170.7216 Cl      1  UNL1       -0.0814
@<TRIPOS>BOND
     1    17    18    1
     2    18    19   ar
     3    19    20   ar
     4    20    21   ar
     5    21    16    1
     6    16     1    1
     7     1     2   ar
     8     2     3   ar
     9     3     6    1
    10     6     8    1
    11     8     9    1
    12     9    10    1
    13    10    11    1
    14    11    12    1
    15    12    13    1
    16    13    14    1
    17    14    15    1
    18     3     4   ar
    19     4     5   ar
    20    21    22   ar
    21    22    23   ar
    22    23    24    1
    23    23    18   ar
    24     5     1   ar
    25    15    10    1
    26     6     7    1
