@<TRIPOS>MOLECULE
*****
 35 39 0 0 0
SMALL
GASTEIGER

@<TRIPOS>ATOM
      1 C         138.1655  140.3234  160.0512 C.ar    1  UNL1        0.2208
      2 N         138.5516  141.5898  159.3461 N.ar    1  UNL1       -0.2120
      3 C         139.4999  141.5425  158.1849 C.ar    1  UNL1        0.1033
      4 C         140.0620  140.2287  157.7286 C.ar    1  UNL1        0.0378
      5 C         141.0103  140.1815  156.5673 C.ar    1  UNL1        0.0141
      6 C         141.5724  138.8677  156.1111 C.ar    1  UNL1        0.0538
      7 CL        142.5206  138.8204  154.9498 Cl      1  UNL1       -0.0826
      8 C         141.1862  137.6013  156.8162 C.ar    1  UNL1       -0.0103
      9 C         140.2380  137.6486  157.9774 C.ar    1  UNL1        0.0158
     10 C         139.6759  138.9623  158.4337 C.ar    1  UNL1        0.0854
     11 N         138.7276  139.0097  159.5949 N.ar    1  UNL1       -0.2136
     12 C         141.7484  136.2876  156.3599 C.3     1  UNL1        0.0260
     13 C         142.9812  135.7329  157.0101 C.3     1  UNL1        0.0217
     14 C         143.5433  134.4192  156.5539 C.3     1  UNL1        0.0725
     15 N         142.8726  133.6601  155.4475 N.3     1  UNL1       -0.2697
     16 C         141.6399  134.2148  154.7974 C.3     1  UNL1        0.0725
     17 C         141.0777  135.5285  155.2536 C.3     1  UNL1        0.0217
     18 C         143.4347  132.3464  154.9913 C.3     1  UNL1        0.1172
     19 C         143.2320  131.4638  153.7954 C.3     1  UNL1        0.1606
     20 O         144.2297  130.4885  154.3461 O.3     1  UNL1       -0.3507
     21 C         144.4324  131.3710  155.5418 C.3     1  UNL1        0.1606
     22 N         137.2172  140.3707  161.2125 N.pl3   1  UNL1       -0.2794
     23 H         136.2465  140.3155  161.0579 H       1  UNL1        0.1552
     24 N         138.7852  139.9874  164.7423 N.ar    1  UNL1       -0.2366
     25 N         138.3442  141.4208  164.7751 N.ar    1  UNL1       -0.1655
     26 C         137.7032  141.7388  163.4568 C.ar    1  UNL1        0.1372
     27 C         137.7480  140.5020  162.6093 C.ar    1  UNL1        0.1001
     28 C         138.4167  139.4196  163.4038 C.ar    1  UNL1        0.1499
     29 CL        138.6720  138.0158  162.9410 Cl      1  UNL1       -0.0603
     30 C         139.4737  139.2512  165.8531 C.3     1  UNL1        0.1551
     31 C         137.7612  138.5078  166.8603 C.3     1  UNL1        0.0314
     32 C         138.9446  139.3414  167.2537 C.3     1  UNL1        0.1110
     33 C         140.1280  140.1749  167.6471 C.3     1  UNL1        0.0314
     34 O         138.4155  139.4316  168.6544 O.3     1  UNL1       -0.3848
     35 H         139.0229  139.9592  169.1961 H       1  UNL1        0.2103
@<TRIPOS>BOND
     1    31    32    1
     2    32    33    1
     3    32    34    1
     4    32    30    1
     5    30    24    1
     6    24    25   ar
     7    25    26   ar
     8    26    27   ar
     9    27    22    1
    10    22     1    1
    11     1     2   ar
    12     2     3   ar
    13     3     4   ar
    14     4     5   ar
    15     5     6   ar
    16     6     7    1
    17     6     8   ar
    18     8    12    1
    19    12    13    1
    20    13    14    1
    21    14    15    1
    22    15    18    1
    23    18    19    1
    24    19    20    1
    25    20    21    1
    26    15    16    1
    27    16    17    1
    28     8     9   ar
    29     9    10   ar
    30    10    11   ar
    31    27    28   ar
    32    28    29    1
    33    28    24   ar
    34    11     1   ar
    35    10     4   ar
    36    17    12    1
    37    21    18    1
    38    34    35    1
    39    22    23    1
@<TRIPOS>MOLECULE
*****
 35 39 0 0 0
SMALL
GASTEIGER

@<TRIPOS>ATOM
      1 C         138.2343  140.2231  159.3430 C.ar    1  UNL1        0.2208
      2 N         138.9723  138.9879  158.9194 N.ar    1  UNL1       -0.2120
      3 C         139.7892  138.2228  159.9180 C.ar    1  UNL1        0.1033
      4 C         139.8681  138.6930  161.3402 C.ar    1  UNL1        0.0378
      5 C         140.6850  137.9279  162.3389 C.ar    1  UNL1        0.0141
      6 C         140.7639  138.3980  163.7611 C.ar    1  UNL1        0.0538
      7 CL        141.5808  137.6330  164.7597 Cl      1  UNL1       -0.0826
      8 C         140.0258  139.6334  164.1847 C.ar    1  UNL1       -0.0103
      9 C         139.2090  140.3984  163.1860 C.ar    1  UNL1        0.0158
     10 C         139.1301  139.9283  161.7638 C.ar    1  UNL1        0.0854
     11 N         138.3132  140.6933  160.7652 N.ar    1  UNL1       -0.2136
     12 C         140.1047  140.1036  165.6069 C.3     1  UNL1        0.0260
     13 C         139.1906  139.5181  166.6422 C.3     1  UNL1        0.0217
     14 C         139.2695  139.9883  168.0644 C.3     1  UNL1        0.0725
     15 N         140.2625  141.0439  168.4513 N.3     1  UNL1       -0.2697
     16 C         141.1765  141.6293  167.4161 C.3     1  UNL1        0.0725
     17 C         141.0977  141.1591  165.9939 C.3     1  UNL1        0.0217
     18 C         140.3414  141.5141  169.8735 C.3     1  UNL1        0.1172
     19 C         140.9468  140.9766  171.1364 C.3     1  UNL1        0.1606
     20 O         140.4529  142.1790  171.8848 O.3     1  UNL1       -0.3507
     21 C         139.8476  142.7165  170.6221 C.3     1  UNL1        0.1606
     22 N         137.4174  140.9883  158.3443 N.pl3   1  UNL1       -0.2794
     23 H         136.4342  140.9541  158.3830 H       1  UNL1        0.1552
     24 N         139.4660  143.4846  156.1910 N.ar    1  UNL1       -0.2366
     25 N         138.8266  142.6415  155.1278 N.ar    1  UNL1       -0.1655
     26 C         137.9814  141.6038  155.8050 C.ar    1  UNL1        0.1372
     27 C         138.0984  141.8055  157.2868 C.ar    1  UNL1        0.1001
     28 C         139.0159  142.9679  157.5253 C.ar    1  UNL1        0.1499
     29 CL        139.4136  143.5172  158.8633 Cl      1  UNL1       -0.0603
     30 C         140.3928  144.6413  155.9604 C.3     1  UNL1        0.1551
     31 C         138.8250  145.9999  155.5173 C.3     1  UNL1        0.0314
     32 C         140.0126  146.0129  156.4337 C.3     1  UNL1        0.1110
     33 C         141.2001  146.0259  157.3500 C.3     1  UNL1        0.0314
     34 O         139.6323  147.3845  156.9070 O.3     1  UNL1       -0.3848
     35 H         140.2744  147.6882  157.5677 H       1  UNL1        0.2103
@<TRIPOS>BOND
     1    31    32    1
     2    32    33    1
     3    32    34    1
     4    32    30    1
     5    30    24    1
     6    24    25   ar
     7    25    26   ar
     8    26    27   ar
     9    27    22    1
    10    22     1    1
    11     1     2   ar
    12     2     3   ar
    13     3     4   ar
    14     4     5   ar
    15     5     6   ar
    16     6     7    1
    17     6     8   ar
    18     8    12    1
    19    12    13    1
    20    13    14    1
    21    14    15    1
    22    15    18    1
    23    18    19    1
    24    19    20    1
    25    20    21    1
    26    15    16    1
    27    16    17    1
    28     8     9   ar
    29     9    10   ar
    30    10    11   ar
    31    27    28   ar
    32    28    29    1
    33    28    24   ar
    34    11     1   ar
    35    10     4   ar
    36    17    12    1
    37    21    18    1
    38    34    35    1
    39    22    23    1
@<TRIPOS>MOLECULE
*****
 35 39 0 0 0
SMALL
GASTEIGER

@<TRIPOS>ATOM
      1 C         143.3972  142.8834  159.3889 C.ar    1  UNL1        0.2208
      2 N         143.8615  141.5258  158.9516 N.ar    1  UNL1       -0.2120
      3 C         143.9011  140.3939  159.9350 C.ar    1  UNL1        0.1033
      4 C         143.4765  140.6197  161.3559 C.ar    1  UNL1        0.0378
      5 C         143.5162  139.4877  162.3394 C.ar    1  UNL1        0.0141
      6 C         143.0915  139.7134  163.7602 C.ar    1  UNL1        0.0538
      7 CL        143.1312  138.5815  164.7436 Cl      1  UNL1       -0.0826
      8 C         142.6273  141.0711  164.1975 C.ar    1  UNL1       -0.0103
      9 C         142.5876  142.2030  163.2141 C.ar    1  UNL1        0.0158
     10 C         143.0122  141.9773  161.7932 C.ar    1  UNL1        0.0854
     11 N         142.9726  143.1091  160.8098 N.ar    1  UNL1       -0.2136
     12 C         142.2026  141.2968  165.6184 C.3     1  UNL1        0.0260
     13 C         140.8394  140.8649  166.0714 C.3     1  UNL1        0.0217
     14 C         140.4148  141.0906  167.4922 C.3     1  UNL1        0.0725
     15 N         141.3534  141.7483  168.4600 N.3     1  UNL1       -0.2697
     16 C         142.7165  142.1802  168.0070 C.3     1  UNL1        0.0725
     17 C         143.1411  141.9545  166.5861 C.3     1  UNL1        0.0217
     18 C         140.9288  141.9740  169.8808 C.3     1  UNL1        0.1172
     19 C         139.9743  142.9055  170.5674 C.3     1  UNL1        0.1606
     20 O         140.3283  142.2932  171.8902 O.3     1  UNL1       -0.3507
     21 C         141.2827  141.3618  171.2037 C.3     1  UNL1        0.1606
     22 N         143.3575  144.0154  158.4055 N.pl3   1  UNL1       -0.2794
     23 H         144.1783  144.5193  158.2016 H       1  UNL1        0.1552
     24 N         140.1271  144.3212  156.2756 N.ar    1  UNL1       -0.2366
     25 N         140.0366  145.5584  157.1189 N.ar    1  UNL1       -0.1655
     26 C         141.2356  145.5944  158.0194 C.ar    1  UNL1        0.1372
     27 C         142.0673  144.3795  157.7326 C.ar    1  UNL1        0.1001
     28 C         141.3822  143.5926  156.6549 C.ar    1  UNL1        0.1499
     29 CL        141.8671  142.3034  156.0608 Cl      1  UNL1       -0.0603
     30 C         139.1366  143.8886  155.2356 C.3     1  UNL1        0.1551
     31 C         137.3833  144.9853  154.7634 C.3     1  UNL1        0.0314
     32 C         137.6835  143.7686  155.5878 C.3     1  UNL1        0.1110
     33 C         137.9837  142.5519  156.4121 C.3     1  UNL1        0.0314
     34 O         136.2304  143.6486  155.9399 O.3     1  UNL1       -0.3848
     35 H         136.1002  142.8810  156.5184 H       1  UNL1        0.2103
@<TRIPOS>BOND
     1    31    32    1
     2    32    33    1
     3    32    34    1
     4    32    30    1
     5    30    24    1
     6    24    25   ar
     7    25    26   ar
     8    26    27   ar
     9    27    22    1
    10    22     1    1
    11     1     2   ar
    12     2     3   ar
    13     3     4   ar
    14     4     5   ar
    15     5     6   ar
    16     6     7    1
    17     6     8   ar
    18     8    12    1
    19    12    13    1
    20    13    14    1
    21    14    15    1
    22    15    18    1
    23    18    19    1
    24    19    20    1
    25    20    21    1
    26    15    16    1
    27    16    17    1
    28     8     9   ar
    29     9    10   ar
    30    10    11   ar
    31    27    28   ar
    32    28    29    1
    33    28    24   ar
    34    11     1   ar
    35    10     4   ar
    36    17    12    1
    37    21    18    1
    38    34    35    1
    39    22    23    1
@<TRIPOS>MOLECULE
*****
 35 39 0 0 0
SMALL
GASTEIGER

@<TRIPOS>ATOM
      1 C         141.9082  140.9984  159.1459 C.ar    1  UNL1        0.2208
      2 N         142.7595  142.1283  158.6474 N.ar    1  UNL1       -0.2120
      3 C         143.3002  143.1419  159.6117 C.ar    1  UNL1        0.1033
      4 C         142.9897  143.0257  161.0746 C.ar    1  UNL1        0.0378
      5 C         143.5305  144.0394  162.0390 C.ar    1  UNL1        0.0141
      6 C         143.2200  143.9231  163.5019 C.ar    1  UNL1        0.0538
      7 CL        143.7607  144.9368  164.4663 Cl      1  UNL1       -0.0826
      8 C         142.3686  142.7931  164.0004 C.ar    1  UNL1       -0.0103
      9 C         141.8279  141.7795  163.0361 C.ar    1  UNL1        0.0158
     10 C         142.1384  141.8958  161.5732 C.ar    1  UNL1        0.0854
     11 N         141.5977  140.8821  160.6088 N.ar    1  UNL1       -0.2136
     12 C         142.0581  142.6769  165.4633 C.3     1  UNL1        0.0260
     13 C         140.6814  142.9970  165.9655 C.3     1  UNL1        0.0217
     14 C         140.3708  142.8808  167.4284 C.3     1  UNL1        0.0725
     15 N         141.4371  142.4444  168.3891 N.3     1  UNL1       -0.2697
     16 C         142.8137  142.1242  167.8869 C.3     1  UNL1        0.0725
     17 C         143.1242  142.2405  166.4240 C.3     1  UNL1        0.0217
     18 C         141.1265  142.3281  169.8520 C.3     1  UNL1        0.1172
     19 C         139.9761  142.7288  170.7272 C.3     1  UNL1        0.1606
     20 O         140.6874  142.1637  171.9208 O.3     1  UNL1       -0.3507
     21 C         141.8377  141.7630  171.0457 C.3     1  UNL1        0.1606
     22 N         141.3674  139.9847  158.1815 N.pl3   1  UNL1       -0.2794
     23 H         140.5721  140.1950  157.6407 H       1  UNL1        0.1552
     24 N         142.9091  136.5930  157.0929 N.ar    1  UNL1       -0.2366
     25 N         143.2322  136.6015  158.5577 N.ar    1  UNL1       -0.1655
     26 C         142.6939  137.8730  159.1438 C.ar    1  UNL1        0.1372
     27 C         142.0383  138.6504  158.0412 C.ar    1  UNL1        0.1001
     28 C         142.1713  137.8594  156.7737 C.ar    1  UNL1        0.1499
     29 CL        141.6567  138.2636  155.4240 Cl      1  UNL1       -0.0603
     30 C         143.2620  135.5086  156.1184 C.3     1  UNL1        0.1551
     31 C         143.8404  133.7426  157.1414 C.3     1  UNL1        0.0314
     32 C         142.6778  134.1366  156.2792 C.3     1  UNL1        0.1110
     33 C         141.5152  134.5305  155.4171 C.3     1  UNL1        0.0314
     34 O         142.0936  132.7644  156.4400 O.3     1  UNL1       -0.3848
     35 H         141.2589  132.7088  155.9491 H       1  UNL1        0.2103
@<TRIPOS>BOND
     1    31    32    1
     2    32    33    1
     3    32    34    1
     4    32    30    1
     5    30    24    1
     6    24    25   ar
     7    25    26   ar
     8    26    27   ar
     9    27    22    1
    10    22     1    1
    11     1     2   ar
    12     2     3   ar
    13     3     4   ar
    14     4     5   ar
    15     5     6   ar
    16     6     7    1
    17     6     8   ar
    18     8    12    1
    19    12    13    1
    20    13    14    1
    21    14    15    1
    22    15    18    1
    23    18    19    1
    24    19    20    1
    25    20    21    1
    26    15    16    1
    27    16    17    1
    28     8     9   ar
    29     9    10   ar
    30    10    11   ar
    31    27    28   ar
    32    28    29    1
    33    28    24   ar
    34    11     1   ar
    35    10     4   ar
    36    17    12    1
    37    21    18    1
    38    34    35    1
    39    22    23    1
@<TRIPOS>MOLECULE
*****
 35 39 0 0 0
SMALL
GASTEIGER

@<TRIPOS>ATOM
      1 C         143.9639  141.1845  159.4506 C.ar    1  UNL1        0.2208
      2 N         143.7255  139.8352  158.8403 N.ar    1  UNL1       -0.2120
      3 C         143.1735  138.7202  159.6780 C.ar    1  UNL1        0.1033
      4 C         142.8597  138.9544  161.1260 C.ar    1  UNL1        0.0378
      5 C         142.3076  137.8393  161.9638 C.ar    1  UNL1        0.0141
      6 C         141.9939  138.0736  163.4117 C.ar    1  UNL1        0.0538
      7 CL        141.4418  136.9585  164.2495 Cl      1  UNL1       -0.0826
      8 C         142.2322  139.4230  164.0220 C.ar    1  UNL1       -0.0103
      9 C         142.7843  140.5380  163.1843 C.ar    1  UNL1        0.0158
     10 C         143.0981  140.3038  161.7363 C.ar    1  UNL1        0.0854
     11 N         143.6501  141.4188  160.8986 N.ar    1  UNL1       -0.2136
     12 C         141.9185  139.6573  165.4700 C.3     1  UNL1        0.0260
     13 C         142.9479  139.3562  166.5187 C.3     1  UNL1        0.0217
     14 C         142.6342  139.5905  167.9667 C.3     1  UNL1        0.0725
     15 N         141.2910  140.1258  168.3660 N.3     1  UNL1       -0.2697
     16 C         140.2617  140.4268  167.3173 C.3     1  UNL1        0.0725
     17 C         140.5754  140.1926  165.8693 C.3     1  UNL1        0.0217
     18 C         140.9773  140.3601  169.8140 C.3     1  UNL1        0.1172
     19 C         139.7813  140.1329  170.6904 C.3     1  UNL1        0.1606
     20 O         140.5336  140.6914  171.8617 O.3     1  UNL1       -0.3507
     21 C         141.7295  140.9186  170.9854 C.3     1  UNL1        0.1606
     22 N         144.5160  142.2997  158.6128 N.pl3   1  UNL1       -0.2794
     23 H         144.4033  143.2342  158.9012 H       1  UNL1        0.1552
     24 N         146.9527  141.8925  155.6192 N.ar    1  UNL1       -0.2366
     25 N         145.7546  141.1389  155.1224 N.ar    1  UNL1       -0.1655
     26 C         144.6960  141.1997  156.1833 C.ar    1  UNL1        0.1372
     27 C         145.2398  141.9909  157.3359 C.ar    1  UNL1        0.1001
     28 C         146.6345  142.4190  156.9872 C.ar    1  UNL1        0.1499
     29 CL        147.5502  143.2311  157.8543 Cl      1  UNL1       -0.0603
     30 C         148.2424  142.0856  154.8781 C.3     1  UNL1        0.1551
     31 C         148.8820  141.4291  152.9650 C.3     1  UNL1        0.0314
     32 C         148.2337  142.6725  153.4977 C.3     1  UNL1        0.1110
     33 C         147.5853  143.9158  154.0304 C.3     1  UNL1        0.0314
     34 O         148.2250  143.2593  152.1173 O.3     1  UNL1       -0.3848
     35 H         147.8278  144.1438  152.1445 H       1  UNL1        0.2103
@<TRIPOS>BOND
     1    31    32    1
     2    32    33    1
     3    32    34    1
     4    32    30    1
     5    30    24    1
     6    24    25   ar
     7    25    26   ar
     8    26    27   ar
     9    27    22    1
    10    22     1    1
    11     1     2   ar
    12     2     3   ar
    13     3     4   ar
    14     4     5   ar
    15     5     6   ar
    16     6     7    1
    17     6     8   ar
    18     8    12    1
    19    12    13    1
    20    13    14    1
    21    14    15    1
    22    15    18    1
    23    18    19    1
    24    19    20    1
    25    20    21    1
    26    15    16    1
    27    16    17    1
    28     8     9   ar
    29     9    10   ar
    30    10    11   ar
    31    27    28   ar
    32    28    29    1
    33    28    24   ar
    34    11     1   ar
    35    10     4   ar
    36    17    12    1
    37    21    18    1
    38    34    35    1
    39    22    23    1
@<TRIPOS>MOLECULE
*****
 35 39 0 0 0
SMALL
GASTEIGER

@<TRIPOS>ATOM
      1 C         143.2945  139.5515  159.6182 C.ar    1  UNL1        0.2208
      2 N         143.5502  140.8347  158.8846 N.ar    1  UNL1       -0.2120
      3 C         143.4662  142.1439  159.6118 C.ar    1  UNL1        0.1033
      4 C         143.1264  142.1699  161.0726 C.ar    1  UNL1        0.0378
      5 C         143.0424  143.4792  161.7999 C.ar    1  UNL1        0.0141
      6 C         142.7026  143.5053  163.2606 C.ar    1  UNL1        0.0538
      7 CL        142.6186  144.8144  163.9879 Cl      1  UNL1       -0.0826
      8 C         142.4470  142.2220  163.9942 C.ar    1  UNL1       -0.0103
      9 C         142.5310  140.9128  163.2670 C.ar    1  UNL1        0.0158
     10 C         142.8707  140.8868  161.8062 C.ar    1  UNL1        0.0854
     11 N         142.9548  139.5776  161.0789 N.ar    1  UNL1       -0.2136
     12 C         142.1072  142.2481  165.4550 C.3     1  UNL1        0.0260
     13 C         140.6797  142.3986  165.8904 C.3     1  UNL1        0.0217
     14 C         140.3399  142.4247  167.3512 C.3     1  UNL1        0.0725
     15 N         141.4277  142.3002  168.3766 N.3     1  UNL1       -0.2697
     16 C         142.8552  142.1497  167.9411 C.3     1  UNL1        0.0725
     17 C         143.1949  142.1236  166.4803 C.3     1  UNL1        0.0217
     18 C         141.0880  142.3262  169.8373 C.3     1  UNL1        0.1172
     19 C         139.9072  142.7795  170.6438 C.3     1  UNL1        0.1606
     20 O         140.6075  142.3631  171.9032 O.3     1  UNL1       -0.3507
     21 C         141.7883  141.9099  171.0968 C.3     1  UNL1        0.1606
     22 N         143.3786  138.2423  158.8909 N.pl3   1  UNL1       -0.2794
     23 H         144.1465  137.6446  159.0403 H       1  UNL1        0.1552
     24 N         141.1094  136.8031  156.0901 N.ar    1  UNL1       -0.2366
     25 N         140.1333  137.6572  156.8437 N.ar    1  UNL1       -0.1655
     26 C         140.8646  138.3002  157.9846 C.ar    1  UNL1        0.1372
     27 C         142.2926  137.8436  157.9361 C.ar    1  UNL1        0.1001
     28 C         142.4438  136.9183  156.7653 C.ar    1  UNL1        0.1499
     29 CL        143.7077  136.2292  156.3436 Cl      1  UNL1       -0.0603
     30 C         140.8045  135.9785  154.8747 C.3     1  UNL1        0.1551
     31 C         140.9419  137.6373  153.5596 C.3     1  UNL1        0.0314
     32 C         141.5180  136.2525  153.5841 C.3     1  UNL1        0.1110
     33 C         142.0942  134.8678  153.6086 C.3     1  UNL1        0.0314
     34 O         142.2316  136.5266  152.2935 O.3     1  UNL1       -0.3848
     35 H         142.7367  135.7415  152.0302 H       1  UNL1        0.2103
@<TRIPOS>BOND
     1    31    32    1
     2    32    33    1
     3    32    34    1
     4    32    30    1
     5    30    24    1
     6    24    25   ar
     7    25    26   ar
     8    26    27   ar
     9    27    22    1
    10    22     1    1
    11     1     2   ar
    12     2     3   ar
    13     3     4   ar
    14     4     5   ar
    15     5     6   ar
    16     6     7    1
    17     6     8   ar
    18     8    12    1
    19    12    13    1
    20    13    14    1
    21    14    15    1
    22    15    18    1
    23    18    19    1
    24    19    20    1
    25    20    21    1
    26    15    16    1
    27    16    17    1
    28     8     9   ar
    29     9    10   ar
    30    10    11   ar
    31    27    28   ar
    32    28    29    1
    33    28    24   ar
    34    11     1   ar
    35    10     4   ar
    36    17    12    1
    37    21    18    1
    38    34    35    1
    39    22    23    1
@<TRIPOS>MOLECULE
*****
 35 39 0 0 0
SMALL
GASTEIGER

@<TRIPOS>ATOM
      1 C         141.2960  141.4009  159.0535 C.ar    1  UNL1        0.2208
      2 N         140.0571  142.0720  158.5390 N.ar    1  UNL1       -0.2120
      3 C         139.0108  142.5534  159.4999 C.ar    1  UNL1        0.1033
      4 C         139.2034  142.3636  160.9753 C.ar    1  UNL1        0.0378
      5 C         138.1569  142.8451  161.9363 C.ar    1  UNL1        0.0141
      6 C         138.3495  142.6554  163.4117 C.ar    1  UNL1        0.0538
      7 CL        137.3032  143.1367  164.3727 Cl      1  UNL1       -0.0826
      8 C         139.5885  141.9842  163.9262 C.ar    1  UNL1       -0.0103
      9 C         140.6348  141.5029  162.9653 C.ar    1  UNL1        0.0158
     10 C         140.4422  141.6926  161.4899 C.ar    1  UNL1        0.0854
     11 N         141.4886  141.2112  160.5289 N.ar    1  UNL1       -0.2136
     12 C         139.7810  141.7945  165.4017 C.3     1  UNL1        0.0260
     13 C         139.3902  140.4988  166.0486 C.3     1  UNL1        0.0217
     14 C         139.5828  140.3091  167.5240 C.3     1  UNL1        0.0725
     15 N         140.1661  141.4151  168.3526 N.3     1  UNL1       -0.2697
     16 C         140.5569  142.7108  167.7057 C.3     1  UNL1        0.0725
     17 C         140.3644  142.9005  166.2302 C.3     1  UNL1        0.0217
     18 C         140.3587  141.2254  169.8280 C.3     1  UNL1        0.1172
     19 C         140.2782  140.0582  170.7668 C.3     1  UNL1        0.1606
     20 O         140.6310  140.9572  171.9146 O.3     1  UNL1       -0.3507
     21 C         140.7115  142.1243  170.9759 C.3     1  UNL1        0.1606
     22 N         142.3424  140.9195  158.0925 N.pl3   1  UNL1       -0.2794
     23 H         142.8657  141.5685  157.5688 H       1  UNL1        0.1552
     24 N         142.9740  137.2695  156.9333 N.ar    1  UNL1       -0.2366
     25 N         142.9759  137.1046  158.4242 N.ar    1  UNL1       -0.1655
     26 C         142.7395  138.4518  159.0399 C.ar    1  UNL1        0.1372
     27 C         142.5916  139.4494  157.9296 C.ar    1  UNL1        0.1001
     28 C         142.7364  138.7187  156.6276 C.ar    1  UNL1        0.1499
     29 CL        142.6577  139.3298  155.2600 Cl      1  UNL1       -0.0603
     30 C         143.1744  136.1771  155.9251 C.3     1  UNL1        0.1551
     31 C         141.1664  135.6258  155.5200 C.3     1  UNL1        0.0314
     32 C         142.3819  134.9077  156.0271 C.3     1  UNL1        0.1110
     33 C         143.5972  134.1896  156.5342 C.3     1  UNL1        0.0314
     34 O         141.5892  133.6383  156.1291 O.3     1  UNL1       -0.3848
     35 H         142.1594  132.9269  156.4603 H       1  UNL1        0.2103
@<TRIPOS>BOND
     1    31    32    1
     2    32    33    1
     3    32    34    1
     4    32    30    1
     5    30    24    1
     6    24    25   ar
     7    25    26   ar
     8    26    27   ar
     9    27    22    1
    10    22     1    1
    11     1     2   ar
    12     2     3   ar
    13     3     4   ar
    14     4     5   ar
    15     5     6   ar
    16     6     7    1
    17     6     8   ar
    18     8    12    1
    19    12    13    1
    20    13    14    1
    21    14    15    1
    22    15    18    1
    23    18    19    1
    24    19    20    1
    25    20    21    1
    26    15    16    1
    27    16    17    1
    28     8     9   ar
    29     9    10   ar
    30    10    11   ar
    31    27    28   ar
    32    28    29    1
    33    28    24   ar
    34    11     1   ar
    35    10     4   ar
    36    17    12    1
    37    21    18    1
    38    34    35    1
    39    22    23    1
@<TRIPOS>MOLECULE
*****
 35 39 0 0 0
SMALL
GASTEIGER

@<TRIPOS>ATOM
      1 C         140.7266  140.3321  159.0929 C.ar    1  UNL1        0.2208
      2 N         139.9784  139.0525  158.8635 N.ar    1  UNL1       -0.2120
      3 C         139.5130  138.2360  160.0326 C.ar    1  UNL1        0.1033
      4 C         139.7959  138.6991  161.4310 C.ar    1  UNL1        0.0378
      5 C         139.3305  137.8825  162.6001 C.ar    1  UNL1        0.0141
      6 C         139.6134  138.3456  163.9984 C.ar    1  UNL1        0.0538
      7 CL        139.1481  137.5291  165.1675 Cl      1  UNL1       -0.0826
      8 C         140.3617  139.6254  164.2277 C.ar    1  UNL1       -0.0103
      9 C         140.8270  140.4419  163.0587 C.ar    1  UNL1        0.0158
     10 C         140.5441  139.9787  161.6603 C.ar    1  UNL1        0.0854
     11 N         141.0095  140.7952  160.4913 N.ar    1  UNL1       -0.2136
     12 C         140.6445  140.0885  165.6261 C.3     1  UNL1        0.0260
     13 C         141.8388  139.5600  166.3641 C.3     1  UNL1        0.0217
     14 C         142.1217  140.0231  167.7625 C.3     1  UNL1        0.0725
     15 N         141.2103  141.0148  168.4229 N.3     1  UNL1       -0.2697
     16 C         140.0161  141.5432  167.6850 C.3     1  UNL1        0.0725
     17 C         139.7332  141.0801  166.2866 C.3     1  UNL1        0.0217
     18 C         141.4931  141.4779  169.8213 C.3     1  UNL1        0.1172
     19 C         142.3225  142.5698  170.4297 C.3     1  UNL1        0.1606
     20 O         141.8932  142.1329  171.7989 O.3     1  UNL1       -0.3507
     21 C         141.0639  141.0411  171.1906 C.3     1  UNL1        0.1606
     22 N         141.1920  141.1487  157.9238 N.pl3   1  UNL1       -0.2794
     23 H         140.5489  141.6981  157.4200 H       1  UNL1        0.1552
     24 N         144.7842  141.7746  156.5936 N.ar    1  UNL1       -0.2366
     25 N         144.9377  140.4183  157.2157 N.ar    1  UNL1       -0.1655
     26 C         143.6107  140.0188  157.7897 C.ar    1  UNL1        0.1372
     27 C         142.6371  141.1281  157.5224 C.ar    1  UNL1        0.1001
     28 C         143.3624  142.2133  156.7831 C.ar    1  UNL1        0.1499
     29 CL        142.7698  143.5095  156.3155 Cl      1  UNL1       -0.0603
     30 C         145.8631  142.5552  155.9032 C.3     1  UNL1        0.1551
     31 C         147.2561  142.9663  157.4493 C.3     1  UNL1        0.0314
     32 C         147.3046  142.2209  156.1485 C.3     1  UNL1        0.1110
     33 C         147.3532  141.4755  154.8477 C.3     1  UNL1        0.0314
     34 O         148.7462  141.8866  156.3939 O.3     1  UNL1       -0.3848
     35 H         149.0865  141.3601  155.6537 H       1  UNL1        0.2103
@<TRIPOS>BOND
     1    31    32    1
     2    32    33    1
     3    32    34    1
     4    32    30    1
     5    30    24    1
     6    24    25   ar
     7    25    26   ar
     8    26    27   ar
     9    27    22    1
    10    22     1    1
    11     1     2   ar
    12     2     3   ar
    13     3     4   ar
    14     4     5   ar
    15     5     6   ar
    16     6     7    1
    17     6     8   ar
    18     8    12    1
    19    12    13    1
    20    13    14    1
    21    14    15    1
    22    15    18    1
    23    18    19    1
    24    19    20    1
    25    20    21    1
    26    15    16    1
    27    16    17    1
    28     8     9   ar
    29     9    10   ar
    30    10    11   ar
    31    27    28   ar
    32    28    29    1
    33    28    24   ar
    34    11     1   ar
    35    10     4   ar
    36    17    12    1
    37    21    18    1
    38    34    35    1
    39    22    23    1
@<TRIPOS>MOLECULE
*****
 35 39 0 0 0
SMALL
GASTEIGER

@<TRIPOS>ATOM
      1 C         143.4936  139.9544  159.5690 C.ar    1  UNL1        0.2208
      2 N         144.0379  141.2130  158.9611 N.ar    1  UNL1       -0.2120
      3 C         144.1411  142.4609  159.7869 C.ar    1  UNL1        0.1033
      4 C         143.6999  142.4503  161.2205 C.ar    1  UNL1        0.0378
      5 C         143.8031  143.6983  162.0462 C.ar    1  UNL1        0.0141
      6 C         143.3620  143.6877  163.4799 C.ar    1  UNL1        0.0538
      7 CL        143.4652  144.9356  164.3056 Cl      1  UNL1       -0.0826
      8 C         142.8177  142.4290  164.0878 C.ar    1  UNL1       -0.0103
      9 C         142.7145  141.1810  163.2620 C.ar    1  UNL1        0.0158
     10 C         143.1557  141.1917  161.8284 C.ar    1  UNL1        0.0854
     11 N         143.0525  139.9437  161.0026 N.ar    1  UNL1       -0.2136
     12 C         142.3766  142.4183  165.5214 C.3     1  UNL1        0.0260
     13 C         140.9265  142.5968  165.8613 C.3     1  UNL1        0.0217
     14 C         140.4854  142.5862  167.2949 C.3     1  UNL1        0.0725
     15 N         141.4943  142.3970  168.3887 N.3     1  UNL1       -0.2697
     16 C         142.9444  142.2185  168.0488 C.3     1  UNL1        0.0725
     17 C         143.3855  142.2292  166.6151 C.3     1  UNL1        0.0217
     18 C         141.0532  142.3863  169.8223 C.3     1  UNL1        0.1172
     19 C         139.8776  142.9362  170.5745 C.3     1  UNL1        0.1606
     20 O         140.4294  142.3713  171.8497 O.3     1  UNL1       -0.3507
     21 C         141.6049  141.8214  171.0976 C.3     1  UNL1        0.1606
     22 N         143.3904  138.7063  158.7433 N.pl3   1  UNL1       -0.2794
     23 H         143.6899  137.8448  159.1138 H       1  UNL1        0.1552
     24 N         141.2817  138.9685  155.4952 N.ar    1  UNL1       -0.2366
     25 N         142.6582  138.7723  154.9322 N.ar    1  UNL1       -0.1655
     26 C         143.6156  138.6503  156.0804 C.ar    1  UNL1        0.1372
     27 C         142.8309  138.7709  157.3530 C.ar    1  UNL1        0.1001
     28 C         141.3885  138.9676  156.9914 C.ar    1  UNL1        0.1499
     29 CL        140.2523  139.1342  157.9565 Cl      1  UNL1       -0.0603
     30 C         140.0200  139.1361  154.7014 C.3     1  UNL1        0.1551
     31 C         139.6625  137.0452  154.6914 C.3     1  UNL1        0.0314
     32 C         138.8346  138.2615  154.9837 C.3     1  UNL1        0.1110
     33 C         138.0067  139.4777  155.2759 C.3     1  UNL1        0.0314
     34 O         137.6492  137.3868  155.2659 O.3     1  UNL1       -0.3848
     35 H         136.8889  137.9398  155.5049 H       1  UNL1        0.2103
@<TRIPOS>BOND
     1    31    32    1
     2    32    33    1
     3    32    34    1
     4    32    30    1
     5    30    24    1
     6    24    25   ar
     7    25    26   ar
     8    26    27   ar
     9    27    22    1
    10    22     1    1
    11     1     2   ar
    12     2     3   ar
    13     3     4   ar
    14     4     5   ar
    15     5     6   ar
    16     6     7    1
    17     6     8   ar
    18     8    12    1
    19    12    13    1
    20    13    14    1
    21    14    15    1
    22    15    18    1
    23    18    19    1
    24    19    20    1
    25    20    21    1
    26    15    16    1
    27    16    17    1
    28     8     9   ar
    29     9    10   ar
    30    10    11   ar
    31    27    28   ar
    32    28    29    1
    33    28    24   ar
    34    11     1   ar
    35    10     4   ar
    36    17    12    1
    37    21    18    1
    38    34    35    1
    39    22    23    1
