@<TRIPOS>MOLECULE
*****
 25 28 0 0 0
SMALL
GASTEIGER

@<TRIPOS>ATOM
      1 C         137.3843  137.9513  167.0621 C.3     1  UNL1        0.1538
      2 N         138.4180  139.0382  167.0467 N.ar    1  UNL1       -0.2474
      3 C         138.9298  139.7510  165.8301 C.ar    1  UNL1        0.0967
      4 C         139.9495  140.7564  166.2768 C.ar    1  UNL1        0.0411
      5 C         140.0679  140.6650  167.7692 C.ar    1  UNL1        0.1024
      6 N         139.1214  139.6030  168.2451 N.ar    1  UNL1       -0.1692
      7 C         140.7162  141.6895  165.3870 C.ar    1  UNL1        0.0398
      8 C         140.1222  143.0100  164.9954 C.ar    1  UNL1        0.0238
      9 C         140.8887  143.9430  164.1058 C.ar    1  UNL1        0.0987
     10 N         142.2496  143.5556  163.6075 N.ar    1  UNL1       -0.2437
     11 C         142.8437  142.2351  163.9991 C.ar    1  UNL1        0.1087
     12 C         142.0770  141.3020  164.8888 C.ar    1  UNL1        0.1534
     13 O         142.4814  139.9493  165.3954 O.3     1  UNL1       -0.4727
     14 C         143.7523  139.1956  165.1374 C.3     1  UNL1        0.2225
     15 C         144.9328  139.6084  164.3091 C.3     1  UNL1        0.1168
     16 N         145.1338  140.8769  163.5342 N.3     1  UNL1       -0.2893
     17 C         144.2040  142.0459  163.3962 C.3     1  UNL1        0.1184
     18 H         145.2994  140.5677  162.5764 H       1  UNL1        0.1237
     19 C         140.9737  141.4905  168.6341 C.ar    1  UNL1        0.0195
     20 C         142.3777  141.0342  168.9000 C.ar    1  UNL1        0.0039
     21 C         143.2834  141.8598  169.7649 C.ar    1  UNL1        0.0297
     22 C         142.7853  143.1416  170.3639 C.ar    1  UNL1        0.1401
     23 F         143.6910  143.9672  171.2288 F       1  UNL1       -0.2042
     24 C         141.3813  143.5979  170.0979 C.ar    1  UNL1        0.0297
     25 C         140.4756  142.7723  169.2331 C.ar    1  UNL1        0.0039
@<TRIPOS>BOND
     1     1     2    1
     2     2     3   ar
     3     3     4   ar
     4     4     7    1
     5     7     8   ar
     6     8     9   ar
     7     9    10   ar
     8    10    11   ar
     9    11    12   ar
    10    12    13    1
    11    13    14    1
    12    14    15    1
    13    15    16    1
    14    16    17    1
    15     4     5   ar
    16     5    19    1
    17    19    20   ar
    18    20    21   ar
    19    21    22   ar
    20    22    23    1
    21    22    24   ar
    22    24    25   ar
    23     5     6   ar
    24     6     2   ar
    25    12     7   ar
    26    25    19   ar
    27    17    11    1
    28    16    18    1
@<TRIPOS>MOLECULE
*****
 25 28 0 0 0
SMALL
GASTEIGER

@<TRIPOS>ATOM
      1 C         139.8333  140.2503  170.5078 C.3     1  UNL1        0.1538
      2 N         140.1743  140.1825  169.0487 N.ar    1  UNL1       -0.2474
      3 C         139.2434  139.7803  167.9434 C.ar    1  UNL1        0.0967
      4 C         140.0000  139.8543  166.6502 C.ar    1  UNL1        0.0411
      5 C         141.3984  140.3021  166.9563 C.ar    1  UNL1        0.1024
      6 N         141.5062  140.5050  168.4387 N.ar    1  UNL1       -0.1692
      7 C         139.4540  139.5362  165.2898 C.ar    1  UNL1        0.0398
      8 C         139.4966  138.1280  164.7750 C.ar    1  UNL1        0.0238
      9 C         138.9506  137.8098  163.4147 C.ar    1  UNL1        0.0987
     10 N         138.3618  138.9000  162.5691 N.ar    1  UNL1       -0.2437
     11 C         138.3192  140.3082  163.0839 C.ar    1  UNL1        0.1087
     12 C         138.8653  140.6263  164.4443 C.ar    1  UNL1        0.1534
     13 O         138.9208  141.9524  165.1431 O.3     1  UNL1       -0.4727
     14 C         138.4439  143.2879  164.6542 C.3     1  UNL1        0.2225
     15 C         137.7938  143.6272  163.3456 C.3     1  UNL1        0.1168
     16 N         137.4600  142.7147  162.2029 N.3     1  UNL1       -0.2893
     17 C         137.6938  141.2376  162.0864 C.3     1  UNL1        0.1184
     18 H         137.9519  143.1151  161.4041 H       1  UNL1        0.1237
     19 C         142.4964  140.5106  165.9558 C.ar    1  UNL1        0.0195
     20 C         143.3051  139.3422  165.4755 C.ar    1  UNL1        0.0039
     21 C         144.4031  139.5507  164.4749 C.ar    1  UNL1        0.0297
     22 C         144.6923  140.9276  163.9548 C.ar    1  UNL1        0.1401
     23 F         145.7903  141.1362  162.9544 F       1  UNL1       -0.2042
     24 C         143.8835  142.0960  164.4353 C.ar    1  UNL1        0.0297
     25 C         142.7856  141.8874  165.4357 C.ar    1  UNL1        0.0039
@<TRIPOS>BOND
     1     1     2    1
     2     2     3   ar
     3     3     4   ar
     4     4     7    1
     5     7     8   ar
     6     8     9   ar
     7     9    10   ar
     8    10    11   ar
     9    11    12   ar
    10    12    13    1
    11    13    14    1
    12    14    15    1
    13    15    16    1
    14    16    17    1
    15     4     5   ar
    16     5    19    1
    17    19    20   ar
    18    20    21   ar
    19    21    22   ar
    20    22    23    1
    21    22    24   ar
    22    24    25   ar
    23     5     6   ar
    24     6     2   ar
    25    12     7   ar
    26    25    19   ar
    27    17    11    1
    28    16    18    1
@<TRIPOS>MOLECULE
*****
 25 28 0 0 0
SMALL
GASTEIGER

@<TRIPOS>ATOM
      1 C         142.6081  140.2865  170.6080 C.3     1  UNL1        0.1538
      2 N         142.1387  140.3536  169.1850 N.ar    1  UNL1       -0.2474
      3 C         142.5926  139.4661  168.0640 C.ar    1  UNL1        0.0967
      4 C         141.8673  139.8841  166.8192 C.ar    1  UNL1        0.0411
      5 C         140.9653  141.0297  167.1708 C.ar    1  UNL1        0.1024
      6 N         141.1329  141.3199  168.6329 N.ar    1  UNL1       -0.1692
      7 C         142.0178  139.2650  165.4612 C.ar    1  UNL1        0.0398
      8 C         141.1825  138.0785  165.0811 C.ar    1  UNL1        0.0238
      9 C         141.3329  137.4594  163.7233 C.ar    1  UNL1        0.0987
     10 N         142.3187  138.0268  162.7453 N.ar    1  UNL1       -0.2437
     11 C         143.1541  139.2133  163.1254 C.ar    1  UNL1        0.1087
     12 C         143.0036  139.8324  164.4834 C.ar    1  UNL1        0.1534
     13 O         143.7318  141.0100  165.0602 O.3     1  UNL1       -0.4727
     14 C         144.7904  141.8595  164.4215 C.3     1  UNL1        0.2225
     15 C         145.3822  141.7411  163.0483 C.3     1  UNL1        0.1168
     16 N         145.0616  140.7439  161.9746 N.3     1  UNL1       -0.2893
     17 C         144.0699  139.6190  162.0089 C.3     1  UNL1        0.1184
     18 H         145.9532  140.2925  161.7706 H       1  UNL1        0.1237
     19 C         140.0553  141.7575  166.2263 C.ar    1  UNL1        0.0195
     20 C         140.2329  143.2293  165.9980 C.ar    1  UNL1        0.0039
     21 C         139.3228  143.9570  165.0534 C.ar    1  UNL1        0.0297
     22 C         138.2351  143.2130  164.3371 C.ar    1  UNL1        0.1401
     23 F         137.3251  143.9406  163.3925 F       1  UNL1       -0.2042
     24 C         138.0575  141.7410  164.5654 C.ar    1  UNL1        0.0297
     25 C         138.9675  141.0134  165.5100 C.ar    1  UNL1        0.0039
@<TRIPOS>BOND
     1     1     2    1
     2     2     3   ar
     3     3     4   ar
     4     4     7    1
     5     7     8   ar
     6     8     9   ar
     7     9    10   ar
     8    10    11   ar
     9    11    12   ar
    10    12    13    1
    11    13    14    1
    12    14    15    1
    13    15    16    1
    14    16    17    1
    15     4     5   ar
    16     5    19    1
    17    19    20   ar
    18    20    21   ar
    19    21    22   ar
    20    22    23    1
    21    22    24   ar
    22    24    25   ar
    23     5     6   ar
    24     6     2   ar
    25    12     7   ar
    26    25    19   ar
    27    17    11    1
    28    16    18    1
@<TRIPOS>MOLECULE
*****
 25 28 0 0 0
SMALL
GASTEIGER

@<TRIPOS>ATOM
      1 C         141.0420  139.6362  170.3268 C.3     1  UNL1        0.1538
      2 N         141.1284  140.3251  168.9972 N.ar    1  UNL1       -0.2474
      3 C         142.3636  140.4718  168.1588 C.ar    1  UNL1        0.0967
      4 C         141.9933  141.2256  166.9159 C.ar    1  UNL1        0.0411
      5 C         140.5294  141.5448  166.9862 C.ar    1  UNL1        0.1024
      6 N         139.9948  140.9883  168.2725 N.ar    1  UNL1       -0.1692
      7 C         142.9237  141.5953  165.7989 C.ar    1  UNL1        0.0398
      8 C         143.6886  142.8844  165.8555 C.ar    1  UNL1        0.0238
      9 C         144.6190  143.2541  164.7386 C.ar    1  UNL1        0.0987
     10 N         144.7845  142.3348  163.5649 N.ar    1  UNL1       -0.2437
     11 C         144.0195  141.0457  163.5082 C.ar    1  UNL1        0.1087
     12 C         143.0891  140.6760  164.6252 C.ar    1  UNL1        0.1534
     13 O         142.2384  139.4487  164.7663 O.3     1  UNL1       -0.4727
     14 C         142.1080  138.2879  163.8252 C.3     1  UNL1        0.2225
     15 C         142.7960  138.0678  162.5106 C.3     1  UNL1        0.1168
     16 N         143.7845  138.9541  161.8125 N.3     1  UNL1       -0.2893
     17 C         144.3289  140.2794  162.2565 C.3     1  UNL1        0.1184
     18 H         143.3610  139.1432  160.9040 H       1  UNL1        0.1237
     19 C         139.7388  142.2897  165.9518 C.ar    1  UNL1        0.0195
     20 C         138.8255  141.5436  165.0248 C.ar    1  UNL1        0.0039
     21 C         138.0349  142.2887  163.9905 C.ar    1  UNL1        0.0297
     22 C         138.1575  143.7797  163.8831 C.ar    1  UNL1        0.1401
     23 F         137.3669  144.5248  162.8488 F       1  UNL1       -0.2042
     24 C         139.0707  144.5259  164.8102 C.ar    1  UNL1        0.0297
     25 C         139.8613  143.7808  165.8445 C.ar    1  UNL1        0.0039
@<TRIPOS>BOND
     1     1     2    1
     2     2     3   ar
     3     3     4   ar
     4     4     7    1
     5     7     8   ar
     6     8     9   ar
     7     9    10   ar
     8    10    11   ar
     9    11    12   ar
    10    12    13    1
    11    13    14    1
    12    14    15    1
    13    15    16    1
    14    16    17    1
    15     4     5   ar
    16     5    19    1
    17    19    20   ar
    18    20    21   ar
    19    21    22   ar
    20    22    23    1
    21    22    24   ar
    22    24    25   ar
    23     5     6   ar
    24     6     2   ar
    25    12     7   ar
    26    25    19   ar
    27    17    11    1
    28    16    18    1
@<TRIPOS>MOLECULE
*****
 25 28 0 0 0
SMALL
GASTEIGER

@<TRIPOS>ATOM
      1 C         143.3565  141.0371  170.2500 C.3     1  UNL1        0.1538
      2 N         142.5827  141.1251  168.9680 N.ar    1  UNL1       -0.2474
      3 C         142.2300  142.3860  168.2358 C.ar    1  UNL1        0.0967
      4 C         141.4550  142.0078  167.0084 C.ar    1  UNL1        0.0411
      5 C         141.3287  140.5135  166.9821 C.ar    1  UNL1        0.1024
      6 N         142.0256  139.9678  168.1931 N.ar    1  UNL1       -0.1692
      7 C         140.9032  142.9574  165.9868 C.ar    1  UNL1        0.0398
      8 C         139.4936  143.4554  166.1098 C.ar    1  UNL1        0.0238
      9 C         138.9418  144.4050  165.0883 C.ar    1  UNL1        0.0987
     10 N         139.7996  144.8568  163.9436 N.ar    1  UNL1       -0.2437
     11 C         141.2092  144.3588  163.8206 C.ar    1  UNL1        0.1087
     12 C         141.7610  143.4092  164.8422 C.ar    1  UNL1        0.1534
     13 O         143.1285  142.7963  164.9070 O.3     1  UNL1       -0.4727
     14 C         144.2819  142.9816  163.9661 C.3     1  UNL1        0.2225
     15 C         144.3528  143.8256  162.7281 C.3     1  UNL1        0.1168
     16 N         143.2877  144.6928  162.1253 N.3     1  UNL1       -0.2893
     17 C         141.8886  144.9301  162.6115 C.3     1  UNL1        0.1184
     18 H         143.1714  144.3333  161.1778 H       1  UNL1        0.1237
     19 C         140.6284  139.7062  165.9295 C.ar    1  UNL1        0.0195
     20 C         141.3278  139.3843  164.6422 C.ar    1  UNL1        0.0039
     21 C         140.6274  138.5771  163.5896 C.ar    1  UNL1        0.0297
     22 C         139.2277  138.0917  163.8243 C.ar    1  UNL1        0.1401
     23 F         138.5273  137.2845  162.7718 F       1  UNL1       -0.2042
     24 C         138.5283  138.4137  165.1117 C.ar    1  UNL1        0.0297
     25 C         139.2287  139.2209  166.1642 C.ar    1  UNL1        0.0039
@<TRIPOS>BOND
     1     1     2    1
     2     2     3   ar
     3     3     4   ar
     4     4     7    1
     5     7     8   ar
     6     8     9   ar
     7     9    10   ar
     8    10    11   ar
     9    11    12   ar
    10    12    13    1
    11    13    14    1
    12    14    15    1
    13    15    16    1
    14    16    17    1
    15     4     5   ar
    16     5    19    1
    17    19    20   ar
    18    20    21   ar
    19    21    22   ar
    20    22    23    1
    21    22    24   ar
    22    24    25   ar
    23     5     6   ar
    24     6     2   ar
    25    12     7   ar
    26    25    19   ar
    27    17    11    1
    28    16    18    1
@<TRIPOS>MOLECULE
*****
 25 28 0 0 0
SMALL
GASTEIGER

@<TRIPOS>ATOM
      1 C         141.2958  141.6054  171.1398 C.3     1  UNL1        0.1538
      2 N         141.3826  141.7518  169.6495 N.ar    1  UNL1       -0.2474
      3 C         140.2362  142.0285  168.7225 C.ar    1  UNL1        0.0967
      4 C         140.7762  142.0948  167.3246 C.ar    1  UNL1        0.0411
      5 C         142.2561  141.8591  167.3876 C.ar    1  UNL1        0.1024
      6 N         142.6310  141.6471  168.8245 N.ar    1  UNL1       -0.1692
      7 C         139.9765  142.3517  166.0818 C.ar    1  UNL1        0.0398
      8 C         139.6452  143.7585  165.6805 C.ar    1  UNL1        0.0238
      9 C         138.8455  144.0155  164.4379 C.ar    1  UNL1        0.0987
     10 N         138.3770  142.8656  163.5963 N.ar    1  UNL1       -0.2437
     11 C         138.7082  141.4587  163.9975 C.ar    1  UNL1        0.1087
     12 C         139.5080  141.2017  165.2403 C.ar    1  UNL1        0.1534
     13 O         139.9446  139.8875  165.8164 O.3     1  UNL1       -0.4727
     14 C         139.6894  138.5055  165.2920 C.3     1  UNL1        0.2225
     15 C         138.9345  138.0964  164.0620 C.3     1  UNL1        0.1168
     16 N         138.2484  138.9684  163.0526 N.3     1  UNL1       -0.2893
     17 C         138.1477  140.4648  163.0240 C.3     1  UNL1        0.1184
     18 H         137.2803  138.6471  163.0535 H       1  UNL1        0.1237
     19 C         143.1963  141.8389  166.2190 C.ar    1  UNL1        0.0195
     20 C         143.4249  140.5642  165.4622 C.ar    1  UNL1        0.0039
     21 C         144.3651  140.5441  164.2936 C.ar    1  UNL1        0.0297
     22 C         145.0767  141.7987  163.8818 C.ar    1  UNL1        0.1401
     23 F         146.0169  141.7786  162.7133 F       1  UNL1       -0.2042
     24 C         144.8481  143.0734  164.6387 C.ar    1  UNL1        0.0297
     25 C         143.9079  143.0935  165.8073 C.ar    1  UNL1        0.0039
@<TRIPOS>BOND
     1     1     2    1
     2     2     3   ar
     3     3     4   ar
     4     4     7    1
     5     7     8   ar
     6     8     9   ar
     7     9    10   ar
     8    10    11   ar
     9    11    12   ar
    10    12    13    1
    11    13    14    1
    12    14    15    1
    13    15    16    1
    14    16    17    1
    15     4     5   ar
    16     5    19    1
    17    19    20   ar
    18    20    21   ar
    19    21    22   ar
    20    22    23    1
    21    22    24   ar
    22    24    25   ar
    23     5     6   ar
    24     6     2   ar
    25    12     7   ar
    26    25    19   ar
    27    17    11    1
    28    16    18    1
@<TRIPOS>MOLECULE
*****
 25 28 0 0 0
SMALL
GASTEIGER

@<TRIPOS>ATOM
      1 C         138.5464  137.7657  164.9547 C.3     1  UNL1        0.1538
      2 N         139.6291  138.7383  165.3177 N.ar    1  UNL1       -0.2474
      3 C         140.7330  139.2057  164.4159 C.ar    1  UNL1        0.0967
      4 C         141.5842  140.1706  165.1872 C.ar    1  UNL1        0.0411
      5 C         141.0064  140.2994  166.5653 C.ar    1  UNL1        0.1024
      6 N         139.7981  139.4142  166.6461 N.ar    1  UNL1       -0.1692
      7 C         142.7998  140.8817  164.6707 C.ar    1  UNL1        0.0398
      8 C         144.1377  140.2047  164.7093 C.ar    1  UNL1        0.0238
      9 C         145.3533  140.9157  164.1929 C.ar    1  UNL1        0.0987
     10 N         145.2309  142.3039  163.6377 N.ar    1  UNL1       -0.2437
     11 C         143.8929  142.9809  163.5991 C.ar    1  UNL1        0.1087
     12 C         142.6773  142.2698  164.1155 C.ar    1  UNL1        0.1534
     13 O         141.2603  142.7586  164.1695 O.3     1  UNL1       -0.4727
     14 C         140.7088  144.0792  163.7203 C.3     1  UNL1        0.2225
     15 C         141.4381  145.2373  163.1062 C.3     1  UNL1        0.1168
     16 N         142.8991  145.3606  162.7897 N.3     1  UNL1       -0.2893
     17 C         143.9916  144.3564  163.0090 C.3     1  UNL1        0.1184
     18 H         143.2035  146.1862  163.3056 H       1  UNL1        0.1237
     19 C         141.5427  141.1619  167.6691 C.ar    1  UNL1        0.0195
     20 C         140.7749  142.3700  168.1174 C.ar    1  UNL1        0.0039
     21 C         141.3113  143.2326  169.2212 C.ar    1  UNL1        0.0297
     22 C         142.6154  142.8870  169.8768 C.ar    1  UNL1        0.1401
     23 F         143.1518  143.7495  170.9806 F       1  UNL1       -0.2042
     24 C         143.3832  141.6788  169.4285 C.ar    1  UNL1        0.0297
     25 C         142.8468  140.8164  168.3247 C.ar    1  UNL1        0.0039
@<TRIPOS>BOND
     1     1     2    1
     2     2     3   ar
     3     3     4   ar
     4     4     7    1
     5     7     8   ar
     6     8     9   ar
     7     9    10   ar
     8    10    11   ar
     9    11    12   ar
    10    12    13    1
    11    13    14    1
    12    14    15    1
    13    15    16    1
    14    16    17    1
    15     4     5   ar
    16     5    19    1
    17    19    20   ar
    18    20    21   ar
    19    21    22   ar
    20    22    23    1
    21    22    24   ar
    22    24    25   ar
    23     5     6   ar
    24     6     2   ar
    25    12     7   ar
    26    25    19   ar
    27    17    11    1
    28    16    18    1
@<TRIPOS>MOLECULE
*****
 25 28 0 0 0
SMALL
GASTEIGER

@<TRIPOS>ATOM
      1 C         143.4325  141.2714  170.2084 C.3     1  UNL1        0.1538
      2 N         142.5889  141.2635  168.9681 N.ar    1  UNL1       -0.2474
      3 C         141.9503  140.0583  168.3438 C.ar    1  UNL1        0.0967
      4 C         141.2025  140.5094  167.1242 C.ar    1  UNL1        0.0411
      5 C         141.3789  141.9933  166.9948 C.ar    1  UNL1        0.1024
      6 N         142.2357  142.4594  168.1344 N.ar    1  UNL1       -0.1692
      7 C         140.4164  139.6308  166.1969 C.ar    1  UNL1        0.0398
      8 C         138.9784  139.3239  166.4934 C.ar    1  UNL1        0.0238
      9 C         138.1922  138.4454  165.5662 C.ar    1  UNL1        0.0987
     10 N         138.8440  137.8735  164.3422 N.ar    1  UNL1       -0.2437
     11 C         140.2821  138.1803  164.0456 C.ar    1  UNL1        0.1087
     12 C         141.0683  139.0589  164.9729 C.ar    1  UNL1        0.1534
     13 O         142.5017  139.4871  164.8647 O.3     1  UNL1       -0.4727
     14 C         143.5031  139.1423  163.8025 C.3     1  UNL1        0.2225
     15 C         143.3184  138.2843  162.5860 C.3     1  UNL1        0.1168
     16 N         142.0866  137.5591  162.1315 N.3     1  UNL1       -0.2893
     17 C         140.7353  137.5128  162.7811 C.3     1  UNL1        0.1184
     18 H         142.3736  136.5823  162.0689 H       1  UNL1        0.1237
     19 C         140.8001  142.8592  165.9154 C.ar    1  UNL1        0.0195
     20 C         139.5568  143.6560  166.1790 C.ar    1  UNL1        0.0039
     21 C         138.9781  144.5219  165.0995 C.ar    1  UNL1        0.0297
     22 C         139.6425  144.5910  163.7565 C.ar    1  UNL1        0.1401
     23 F         139.0638  145.4569  162.6770 F       1  UNL1       -0.2042
     24 C         140.8858  143.7942  163.4929 C.ar    1  UNL1        0.0297
     25 C         141.4645  142.9283  164.5724 C.ar    1  UNL1        0.0039
@<TRIPOS>BOND
     1     1     2    1
     2     2     3   ar
     3     3     4   ar
     4     4     7    1
     5     7     8   ar
     6     8     9   ar
     7     9    10   ar
     8    10    11   ar
     9    11    12   ar
    10    12    13    1
    11    13    14    1
    12    14    15    1
    13    15    16    1
    14    16    17    1
    15     4     5   ar
    16     5    19    1
    17    19    20   ar
    18    20    21   ar
    19    21    22   ar
    20    22    23    1
    21    22    24   ar
    22    24    25   ar
    23     5     6   ar
    24     6     2   ar
    25    12     7   ar
    26    25    19   ar
    27    17    11    1
    28    16    18    1
@<TRIPOS>MOLECULE
*****
 25 28 0 0 0
SMALL
GASTEIGER

@<TRIPOS>ATOM
      1 C         142.5600  142.6546  170.1733 C.3     1  UNL1        0.1538
      2 N         142.4297  142.1075  168.7828 N.ar    1  UNL1       -0.2474
      3 C         143.3016  142.4558  167.6129 C.ar    1  UNL1        0.0967
      4 C         142.8152  141.6795  166.4250 C.ar    1  UNL1        0.0411
      5 C         141.6429  140.8515  166.8608 C.ar    1  UNL1        0.1024
      6 N         141.4046  141.1159  168.3179 N.ar    1  UNL1       -0.1692
      7 C         143.3988  141.7235  165.0439 C.ar    1  UNL1        0.0398
      8 C         144.4636  140.7440  164.6480 C.ar    1  UNL1        0.0238
      9 C         145.0472  140.7880  163.2670 C.ar    1  UNL1        0.0987
     10 N         144.5661  141.8117  162.2817 N.ar    1  UNL1       -0.2437
     11 C         143.5013  142.7913  162.6776 C.ar    1  UNL1        0.1087
     12 C         142.9176  142.7472  164.0587 C.ar    1  UNL1        0.1534
     13 O         141.8560  143.6239  164.6537 O.3     1  UNL1       -0.4727
     14 C         141.1157  144.7613  164.0147 C.3     1  UNL1        0.2225
     15 C         141.2542  145.3028  162.6227 C.3     1  UNL1        0.1168
     16 N         142.1673  144.8407  161.5260 N.3     1  UNL1       -0.2893
     17 C         143.1674  143.7229  161.5505 C.3     1  UNL1        0.1184
     18 H         142.7137  145.6671  161.2832 H       1  UNL1        0.1237
     19 C         140.8483  139.9221  165.9920 C.ar    1  UNL1        0.0195
     20 C         139.4366  140.2664  165.6199 C.ar    1  UNL1        0.0039
     21 C         138.6420  139.3369  164.7511 C.ar    1  UNL1        0.0297
     22 C         139.2591  138.0632  164.2543 C.ar    1  UNL1        0.1401
     23 F         138.4646  137.1337  163.3856 F       1  UNL1       -0.2042
     24 C         140.6709  137.7189  164.6265 C.ar    1  UNL1        0.0297
     25 C         141.4654  138.6483  165.4953 C.ar    1  UNL1        0.0039
@<TRIPOS>BOND
     1     1     2    1
     2     2     3   ar
     3     3     4   ar
     4     4     7    1
     5     7     8   ar
     6     8     9   ar
     7     9    10   ar
     8    10    11   ar
     9    11    12   ar
    10    12    13    1
    11    13    14    1
    12    14    15    1
    13    15    16    1
    14    16    17    1
    15     4     5   ar
    16     5    19    1
    17    19    20   ar
    18    20    21   ar
    19    21    22   ar
    20    22    23    1
    21    22    24   ar
    22    24    25   ar
    23     5     6   ar
    24     6     2   ar
    25    12     7   ar
    26    25    19   ar
    27    17    11    1
    28    16    18    1
