@<TRIPOS>MOLECULE
*****
 32 35 0 0 0
SMALL
GASTEIGER

@<TRIPOS>ATOM
      1 C         144.0792  141.1234  164.7351 C.ar    1  UNL1        0.0694
      2 C         143.8527  139.6998  164.3202 C.ar    1  UNL1        0.0858
      3 S         143.0516  139.0258  165.3944 S.2     1  UNL1       -0.0709
      4 C         142.7830  140.0328  166.4732 C.ar    1  UNL1        0.0598
      5 C         143.4181  141.3292  166.0658 C.ar    1  UNL1       -0.0026
      6 C         143.3124  142.5296  166.9590 C.3     1  UNL1        0.0879
      7 C         142.5716  142.4336  168.2598 C.3     1  UNL1        0.1138
      8 N         141.9364  141.1373  168.6673 N.4     1  UNL1        0.3049
      9 C         141.8307  142.3376  169.5605 C.3     1  UNL1        0.1416
     10 C         141.0899  142.2416  170.8612 C.3     1  UNL1        0.2030
     11 O         140.4547  140.9453  171.2687 O.3     1  UNL1       -0.3412
     12 C         140.5604  139.7449  170.3754 C.3     1  UNL1        0.2030
     13 C         141.3013  139.8409  169.0747 C.3     1  UNL1        0.1416
     14 C         142.0421  139.9369  167.7739 C.3     1  UNL1        0.1424
     15 N         144.3415  139.0622  163.0535 N.am    1  UNL1       -0.2629
     16 C         143.6357  139.3312  161.7576 C.2     1  UNL1        0.3085
     17 O         142.4410  140.2379  161.7284 O.2     1  UNL1       -0.2521
     18 N         144.1244  138.6936  160.4909 N.am    1  UNL1       -0.2680
     19 H         145.1255  138.4671  163.0727 H       1  UNL1        0.1569
     20 H         144.9085  138.0985  160.5101 H       1  UNL1        0.1564
     21 C         143.4185  138.9626  159.1950 C.ar    1  UNL1        0.0516
     22 C         143.7116  140.2179  158.4278 C.ar    1  UNL1        0.0156
     23 C         143.0057  140.4869  157.1319 C.ar    1  UNL1        0.0127
     24 C         142.0068  139.5007  156.6031 C.ar    1  UNL1        0.0578
     25 CL        141.3009  139.7698  155.3073 Cl      1  UNL1       -0.0822
     26 C         141.7137  138.2455  157.3703 C.ar    1  UNL1        0.0127
     27 C         142.4196  137.9765  158.6662 C.ar    1  UNL1        0.0156
     28 N         146.2297  141.8741  163.4854 N.am    1  UNL1       -0.3253
     29 C         144.8343  142.1592  163.9562 C.2     1  UNL1        0.2442
     30 O         144.1941  143.4803  163.6480 O.2     1  UNL1       -0.2703
     31 H         146.7253  142.5540  162.9741 H       1  UNL1        0.1453
     32 H         146.6499  141.0071  163.6876 H       1  UNL1        0.1453
@<TRIPOS>UNITY_ATOM_ATTR
8 1
charge 1
@<TRIPOS>BOND
     1    28    29   am
     2    29    30    2
     3    29     1    1
     4     1     2   ar
     5     2    15    1
     6    15    16   am
     7    16    17    2
     8    16    18   am
     9    18    21    1
    10    21    22   ar
    11    22    23   ar
    12    23    24   ar
    13    24    25    1
    14    24    26   ar
    15    26    27   ar
    16     2     3   ar
    17     3     4   ar
    18     4     5   ar
    19     5     6    1
    20     6     7    1
    21     7     8    1
    22     8     9    1
    23     9    10    1
    24    10    11    1
    25    11    12    1
    26    12    13    1
    27     8    14    1
    28     5     1   ar
    29    13     8    1
    30    27    21   ar
    31    14     4    1
    32    28    31    1
    33    28    32    1
    34    15    19    1
    35    18    20    1
@<TRIPOS>MOLECULE
*****
 32 35 0 0 0
SMALL
GASTEIGER

@<TRIPOS>ATOM
      1 C         142.5221  143.7641  164.0866 C.ar    1  UNL1        0.0694
      2 C         141.1705  144.3120  163.7361 C.ar    1  UNL1        0.0858
      3 S         140.1755  143.7465  164.7056 S.2     1  UNL1       -0.0709
      4 C         140.9121  142.8491  165.6554 C.ar    1  UNL1        0.0598
      5 C         142.3624  142.8599  165.2728 C.ar    1  UNL1       -0.0026
      6 C         143.3503  142.0451  166.0539 C.3     1  UNL1        0.0879
      7 C         142.8878  141.2194  167.2177 C.3     1  UNL1        0.1138
      8 N         141.4374  141.2085  167.6003 N.4     1  UNL1        0.3049
      9 C         142.4253  140.3937  168.3814 C.3     1  UNL1        0.1416
     10 C         141.9628  139.5680  169.5451 C.3     1  UNL1        0.2030
     11 O         140.5124  139.5572  169.9277 O.3     1  UNL1       -0.3412
     12 C         139.5246  140.3720  169.1466 C.3     1  UNL1        0.2030
     13 C         139.9871  141.1976  167.9829 C.3     1  UNL1        0.1416
     14 C         140.4496  142.0234  166.8191 C.3     1  UNL1        0.1424
     15 N         140.8672  145.2592  162.6132 N.am    1  UNL1       -0.2629
     16 C         140.9980  144.8022  161.1905 C.2     1  UNL1        0.3085
     17 O         141.4321  143.3980  160.8907 O.2     1  UNL1       -0.2521
     18 N         140.6947  145.7494  160.0676 N.am    1  UNL1       -0.2680
     19 H         140.5823  146.1808  162.8100 H       1  UNL1        0.1569
     20 H         140.4098  146.6710  160.2644 H       1  UNL1        0.1564
     21 C         140.8255  145.2924  158.6449 C.ar    1  UNL1        0.0516
     22 C         141.9377  145.8190  157.7872 C.ar    1  UNL1        0.0156
     23 C         142.0685  145.3620  156.3645 C.ar    1  UNL1        0.0127
     24 C         141.0871  144.3783  155.7995 C.ar    1  UNL1        0.0578
     25 CL        141.2179  143.9212  154.3769 Cl      1  UNL1       -0.0822
     26 C         139.9749  143.8516  156.6573 C.ar    1  UNL1        0.0127
     27 C         139.8441  144.3086  158.0800 C.ar    1  UNL1        0.0156
     28 N         144.1087  145.4689  162.9348 N.am    1  UNL1       -0.3253
     29 C         143.8078  144.0671  163.3758 C.2     1  UNL1        0.2442
     30 O         144.7925  142.9683  163.1058 O.2     1  UNL1       -0.2703
     31 H         144.9525  145.6677  162.4683 H       1  UNL1        0.1453
     32 H         143.4623  146.1901  163.1120 H       1  UNL1        0.1453
@<TRIPOS>UNITY_ATOM_ATTR
8 1
charge 1
@<TRIPOS>BOND
     1    28    29   am
     2    29    30    2
     3    29     1    1
     4     1     2   ar
     5     2    15    1
     6    15    16   am
     7    16    17    2
     8    16    18   am
     9    18    21    1
    10    21    22   ar
    11    22    23   ar
    12    23    24   ar
    13    24    25    1
    14    24    26   ar
    15    26    27   ar
    16     2     3   ar
    17     3     4   ar
    18     4     5   ar
    19     5     6    1
    20     6     7    1
    21     7     8    1
    22     8     9    1
    23     9    10    1
    24    10    11    1
    25    11    12    1
    26    12    13    1
    27     8    14    1
    28     5     1   ar
    29    13     8    1
    30    27    21   ar
    31    14     4    1
    32    28    31    1
    33    28    32    1
    34    15    19    1
    35    18    20    1
@<TRIPOS>MOLECULE
*****
 32 35 0 0 0
SMALL
GASTEIGER

@<TRIPOS>ATOM
      1 C         138.8148  141.7914  164.3294 C.ar    1  UNL1        0.0694
      2 C         139.2075  143.2062  164.0227 C.ar    1  UNL1        0.0858
      3 S         139.9797  143.7371  165.1939 S.2     1  UNL1       -0.0709
      4 C         140.0643  142.6504  166.2245 C.ar    1  UNL1        0.0598
      5 C         139.3443  141.4479  165.6902 C.ar    1  UNL1       -0.0026
      6 C         139.2638  140.1955  166.5117 C.3     1  UNL1        0.0879
      7 C         139.9034  140.1456  167.8677 C.3     1  UNL1        0.1138
      8 N         140.6234  141.3481  168.4020 N.4     1  UNL1        0.3049
      9 C         140.5429  140.0957  169.2235 C.3     1  UNL1        0.1416
     10 C         141.1825  140.0459  170.5794 C.3     1  UNL1        0.2030
     11 O         141.9025  141.2484  171.1137 O.3     1  UNL1       -0.3412
     12 C         141.9830  142.5008  170.2922 C.3     1  UNL1        0.2030
     13 C         141.3434  142.5507  168.9363 C.3     1  UNL1        0.1416
     14 C         140.7038  142.6006  167.5803 C.3     1  UNL1        0.1424
     15 N         138.8847  143.9580  162.7655 N.am    1  UNL1       -0.2629
     16 C         139.7623  143.8119  161.5579 C.2     1  UNL1        0.3085
     17 O         140.9628  142.9138  161.6074 O.2     1  UNL1       -0.2521
     18 N         139.4395  144.5638  160.3007 N.am    1  UNL1       -0.2680
     19 H         138.0968  144.5475  162.7330 H       1  UNL1        0.1569
     20 H         138.6516  145.1532  160.2682 H       1  UNL1        0.1564
     21 C         140.3172  144.4176  159.0931 C.ar    1  UNL1        0.0516
     22 C         140.2109  143.1937  158.2324 C.ar    1  UNL1        0.0156
     23 C         141.0886  143.0475  157.0248 C.ar    1  UNL1        0.0127
     24 C         142.0725  144.1252  156.6778 C.ar    1  UNL1        0.0578
     25 CL        142.9502  143.9791  155.4702 Cl      1  UNL1       -0.0822
     26 C         142.1788  145.3492  157.5385 C.ar    1  UNL1        0.0127
     27 C         141.3011  145.4953  158.7461 C.ar    1  UNL1        0.0156
     28 N         138.3659  139.4194  163.3690 N.am    1  UNL1       -0.3253
     29 C         138.0303  140.8800  163.4328 C.2     1  UNL1        0.2442
     30 O         136.9101  141.4292  162.5999 O.2     1  UNL1       -0.2703
     31 H         137.8510  138.8213  162.7805 H       1  UNL1        0.1453
     32 H         139.1011  139.0590  163.9156 H       1  UNL1        0.1453
@<TRIPOS>UNITY_ATOM_ATTR
8 1
charge 1
@<TRIPOS>BOND
     1    28    29   am
     2    29    30    2
     3    29     1    1
     4     1     2   ar
     5     2    15    1
     6    15    16   am
     7    16    17    2
     8    16    18   am
     9    18    21    1
    10    21    22   ar
    11    22    23   ar
    12    23    24   ar
    13    24    25    1
    14    24    26   ar
    15    26    27   ar
    16     2     3   ar
    17     3     4   ar
    18     4     5   ar
    19     5     6    1
    20     6     7    1
    21     7     8    1
    22     8     9    1
    23     9    10    1
    24    10    11    1
    25    11    12    1
    26    12    13    1
    27     8    14    1
    28     5     1   ar
    29    13     8    1
    30    27    21   ar
    31    14     4    1
    32    28    31    1
    33    28    32    1
    34    15    19    1
    35    18    20    1
@<TRIPOS>MOLECULE
*****
 32 35 0 0 0
SMALL
GASTEIGER

@<TRIPOS>ATOM
      1 C         139.4282  140.3805  163.7281 C.ar    1  UNL1        0.0694
      2 C         140.6747  140.8042  163.0094 C.ar    1  UNL1        0.0858
      3 S         141.7547  141.0012  164.0315 S.2     1  UNL1       -0.0709
      4 C         141.1757  140.6991  165.3818 C.ar    1  UNL1        0.0598
      5 C         139.7378  140.3155  165.1943 C.ar    1  UNL1       -0.0026
      6 C         138.8962  139.9566  166.3829 C.3     1  UNL1        0.0879
      7 C         139.4925  139.9812  167.7591 C.3     1  UNL1        0.1138
      8 N         140.9305  140.3649  167.9467 N.4     1  UNL1        0.3049
      9 C         140.0889  140.0059  169.1353 C.3     1  UNL1        0.1416
     10 C         140.6852  140.0306  170.5114 C.3     1  UNL1        0.2030
     11 O         142.1231  140.4143  170.6989 O.3     1  UNL1       -0.3412
     12 C         142.9647  140.7732  169.5103 C.3     1  UNL1        0.2030
     13 C         142.3684  140.7485  168.1342 C.3     1  UNL1        0.1416
     14 C         141.7721  140.7238  166.7579 C.3     1  UNL1        0.1424
     15 N         140.8163  140.9972  161.5286 N.am    1  UNL1       -0.2629
     16 C         140.9613  139.8068  160.6276 C.2     1  UNL1        0.3085
     17 O         140.9647  138.4233  161.2074 O.2     1  UNL1       -0.2521
     18 N         141.1029  139.9998  159.1468 N.am    1  UNL1       -0.2680
     19 H         140.8141  141.9052  161.1481 H       1  UNL1        0.1569
     20 H         141.1007  140.9077  158.7663 H       1  UNL1        0.1564
     21 C         141.2479  138.8093  158.2458 C.ar    1  UNL1        0.0516
     22 C         140.0803  138.3397  157.4297 C.ar    1  UNL1        0.0156
     23 C         140.2252  137.1492  156.5287 C.ar    1  UNL1        0.0127
     24 C         141.5379  136.4283  156.4438 C.ar    1  UNL1        0.0578
     25 CL        141.6830  135.2378  155.5429 Cl      1  UNL1       -0.0822
     26 C         142.7056  136.8979  157.2600 C.ar    1  UNL1        0.0127
     27 C         142.5606  138.0884  158.1610 C.ar    1  UNL1        0.0156
     28 N         136.9851  141.0704  163.1754 N.am    1  UNL1       -0.3253
     29 C         138.1043  140.0752  163.0922 C.2     1  UNL1        0.2442
     30 O         137.8998  138.7749  162.3730 O.2     1  UNL1       -0.2703
     31 H         136.1162  140.8700  162.7581 H       1  UNL1        0.1453
     32 H         137.1193  141.9239  163.6474 H       1  UNL1        0.1453
@<TRIPOS>UNITY_ATOM_ATTR
8 1
charge 1
@<TRIPOS>BOND
     1    28    29   am
     2    29    30    2
     3    29     1    1
     4     1     2   ar
     5     2    15    1
     6    15    16   am
     7    16    17    2
     8    16    18   am
     9    18    21    1
    10    21    22   ar
    11    22    23   ar
    12    23    24   ar
    13    24    25    1
    14    24    26   ar
    15    26    27   ar
    16     2     3   ar
    17     3     4   ar
    18     4     5   ar
    19     5     6    1
    20     6     7    1
    21     7     8    1
    22     8     9    1
    23     9    10    1
    24    10    11    1
    25    11    12    1
    26    12    13    1
    27     8    14    1
    28     5     1   ar
    29    13     8    1
    30    27    21   ar
    31    14     4    1
    32    28    31    1
    33    28    32    1
    34    15    19    1
    35    18    20    1
@<TRIPOS>MOLECULE
*****
 32 35 0 0 0
SMALL
GASTEIGER

@<TRIPOS>ATOM
      1 C         144.1981  140.5313  162.4325 C.ar    1  UNL1        0.0694
      2 C         143.7973  139.3325  163.2401 C.ar    1  UNL1        0.0858
      3 S         143.2552  138.2990  162.2977 S.2     1  UNL1       -0.0709
      4 C         143.3208  138.8591  160.9078 C.ar    1  UNL1        0.0598
      5 C         143.9036  140.2388  160.9911 C.ar    1  UNL1       -0.0026
      6 C         144.0908  141.0505  159.7437 C.3     1  UNL1        0.0879
      7 C         143.6953  140.4825  158.4128 C.3     1  UNL1        0.1138
      8 N         143.1125  139.1028  158.3295 N.4     1  UNL1        0.3049
      9 C         143.2997  139.9145  157.0821 C.3     1  UNL1        0.1416
     10 C         142.9042  139.3465  155.7514 C.3     1  UNL1        0.2030
     11 O         142.3215  137.9668  155.6681 O.3     1  UNL1       -0.3412
     12 C         142.1342  137.1552  156.9155 C.3     1  UNL1        0.2030
     13 C         142.5298  137.7232  158.2462 C.3     1  UNL1        0.1416
     14 C         142.9253  138.2911  159.5770 C.3     1  UNL1        0.1424
     15 N         143.9176  139.1918  164.7286 N.am    1  UNL1       -0.2629
     16 C         143.0218  139.9864  165.6319 C.2     1  UNL1        0.3085
     17 O         142.0056  140.9219  165.0466 O.2     1  UNL1       -0.2521
     18 N         143.1420  139.8458  167.1204 N.am    1  UNL1       -0.2680
     19 H         144.5845  138.5778  165.1127 H       1  UNL1        0.1569
     20 H         143.8090  139.2318  167.5046 H       1  UNL1        0.1564
     21 C         142.2462  140.6405  168.0237 C.ar    1  UNL1        0.0516
     22 C         142.7007  141.9691  168.5511 C.ar    1  UNL1        0.0156
     23 C         141.8048  142.7639  169.4543 C.ar    1  UNL1        0.0127
     24 C         140.4544  142.2299  169.8302 C.ar    1  UNL1        0.0578
     25 CL        139.5585  143.0246  170.7334 Cl      1  UNL1       -0.0822
     26 C         139.9999  140.9012  169.3028 C.ar    1  UNL1        0.0127
     27 C         140.8957  140.1066  168.3996 C.ar    1  UNL1        0.0156
     28 N         146.2043  141.8156  163.4697 N.am    1  UNL1       -0.3253
     29 C         144.7895  141.8000  162.9717 C.2     1  UNL1        0.2442
     30 O         143.9660  143.0531  163.0129 O.2     1  UNL1       -0.2703
     31 H         146.5924  142.6482  163.8236 H       1  UNL1        0.1453
     32 H         146.7447  140.9931  163.4427 H       1  UNL1        0.1453
@<TRIPOS>UNITY_ATOM_ATTR
8 1
charge 1
@<TRIPOS>BOND
     1    28    29   am
     2    29    30    2
     3    29     1    1
     4     1     2   ar
     5     2    15    1
     6    15    16   am
     7    16    17    2
     8    16    18   am
     9    18    21    1
    10    21    22   ar
    11    22    23   ar
    12    23    24   ar
    13    24    25    1
    14    24    26   ar
    15    26    27   ar
    16     2     3   ar
    17     3     4   ar
    18     4     5   ar
    19     5     6    1
    20     6     7    1
    21     7     8    1
    22     8     9    1
    23     9    10    1
    24    10    11    1
    25    11    12    1
    26    12    13    1
    27     8    14    1
    28     5     1   ar
    29    13     8    1
    30    27    21   ar
    31    14     4    1
    32    28    31    1
    33    28    32    1
    34    15    19    1
    35    18    20    1
@<TRIPOS>MOLECULE
*****
 32 35 0 0 0
SMALL
GASTEIGER

@<TRIPOS>ATOM
      1 C         140.2582  144.3717  162.8156 C.ar    1  UNL1        0.0694
      2 C         141.6289  144.4283  162.2090 C.ar    1  UNL1        0.0858
      3 S         142.5246  143.5239  163.0027 S.2     1  UNL1       -0.0709
      4 C         141.7075  142.9085  164.0998 C.ar    1  UNL1        0.0598
      5 C         140.3067  143.4325  163.9841 C.ar    1  UNL1       -0.0026
      6 C         139.2564  142.9866  164.9578 C.3     1  UNL1        0.0879
      7 C         139.6069  142.0168  166.0472 C.3     1  UNL1        0.1138
      8 N         141.0076  141.4928  166.1628 N.4     1  UNL1        0.3049
      9 C         139.9573  141.0470  167.1365 C.3     1  UNL1        0.1416
     10 C         140.3078  140.0772  168.2257 C.3     1  UNL1        0.2030
     11 O         141.7085  139.5532  168.3414 O.3     1  UNL1       -0.3412
     12 C         142.7588  139.9990  167.3677 C.3     1  UNL1        0.2030
     13 C         142.4084  140.9688  166.2784 C.3     1  UNL1        0.1416
     14 C         142.0579  141.9387  165.1891 C.3     1  UNL1        0.1424
     15 N         142.0330  145.2456  161.0179 N.am    1  UNL1       -0.2629
     16 C         141.5360  144.8767  159.6516 C.2     1  UNL1        0.3085
     17 O         140.6349  143.6903  159.4764 O.2     1  UNL1       -0.2521
     18 N         141.9401  145.6940  158.4606 N.am    1  UNL1       -0.2680
     19 H         142.6244  146.0242  161.1330 H       1  UNL1        0.1569
     20 H         142.5315  146.4726  158.5756 H       1  UNL1        0.1564
     21 C         141.4430  145.3250  157.0942 C.ar    1  UNL1        0.0516
     22 C         140.0965  145.7983  156.6328 C.ar    1  UNL1        0.0156
     23 C         139.5995  145.4293  155.2665 C.ar    1  UNL1        0.0127
     24 C         140.4490  144.5870  154.3616 C.ar    1  UNL1        0.0578
     25 CL        139.9520  144.2180  152.9953 Cl      1  UNL1       -0.0822
     26 C         141.7955  144.1137  154.8230 C.ar    1  UNL1        0.0127
     27 C         142.2925  144.4827  156.1893 C.ar    1  UNL1        0.0156
     28 N         137.6788  144.5635  162.5714 N.am    1  UNL1       -0.3253
     29 C         139.0509  145.1226  162.3376 C.2     1  UNL1        0.2442
     30 O         139.2156  146.4326  161.6257 O.2     1  UNL1       -0.2703
     31 H         136.8863  145.0564  162.2577 H       1  UNL1        0.1453
     32 H         137.5706  143.7037  163.0386 H       1  UNL1        0.1453
@<TRIPOS>UNITY_ATOM_ATTR
8 1
charge 1
@<TRIPOS>BOND
     1    28    29   am
     2    29    30    2
     3    29     1    1
     4     1     2   ar
     5     2    15    1
     6    15    16   am
     7    16    17    2
     8    16    18   am
     9    18    21    1
    10    21    22   ar
    11    22    23   ar
    12    23    24   ar
    13    24    25    1
    14    24    26   ar
    15    26    27   ar
    16     2     3   ar
    17     3     4   ar
    18     4     5   ar
    19     5     6    1
    20     6     7    1
    21     7     8    1
    22     8     9    1
    23     9    10    1
    24    10    11    1
    25    11    12    1
    26    12    13    1
    27     8    14    1
    28     5     1   ar
    29    13     8    1
    30    27    21   ar
    31    14     4    1
    32    28    31    1
    33    28    32    1
    34    15    19    1
    35    18    20    1
@<TRIPOS>MOLECULE
*****
 32 35 0 0 0
SMALL
GASTEIGER

@<TRIPOS>ATOM
      1 C         142.8257  139.9813  163.3190 C.ar    1  UNL1        0.0694
      2 C         141.5746  140.3851  162.5967 C.ar    1  UNL1        0.0858
      3 S         140.4838  140.5458  163.6137 S.2     1  UNL1       -0.0709
      4 C         141.0607  140.2413  164.9644 C.ar    1  UNL1        0.0598
      5 C         142.5081  139.8924  164.7823 C.ar    1  UNL1       -0.0026
      6 C         143.3499  139.5389  165.9723 C.3     1  UNL1        0.0879
      7 C         142.7443  139.5342  167.3447 C.3     1  UNL1        0.1138
      8 N         141.2969  139.8831  167.5269 N.4     1  UNL1        0.3049
      9 C         142.1387  139.5296  168.7169 C.3     1  UNL1        0.1416
     10 C         141.5330  139.5249  170.0892 C.3     1  UNL1        0.2030
     11 O         140.0856  139.8738  170.2714 O.3     1  UNL1       -0.3412
     12 C         139.2438  140.2274  169.0813 C.3     1  UNL1        0.2030
     13 C         139.8494  140.2320  167.7090 C.3     1  UNL1        0.1416
     14 C         140.4550  140.2367  166.3367 C.3     1  UNL1        0.1424
     15 N         141.4382  140.5919  161.1173 N.am    1  UNL1       -0.2629
     16 C         141.4590  139.4130  160.1902 C.2     1  UNL1        0.3085
     17 O         141.6161  138.0272  160.7424 O.2     1  UNL1       -0.2521
     18 N         141.3226  139.6198  158.7108 N.am    1  UNL1       -0.2680
     19 H         141.3351  141.5015  160.7549 H       1  UNL1        0.1569
     20 H         141.2195  140.5294  158.3483 H       1  UNL1        0.1564
     21 C         141.3434  138.4408  157.7836 C.ar    1  UNL1        0.0516
     22 C         142.6012  137.6412  157.6151 C.ar    1  UNL1        0.0156
     23 C         142.6220  136.4622  156.6880 C.ar    1  UNL1        0.0127
     24 C         141.3849  136.0829  155.9293 C.ar    1  UNL1        0.0578
     25 CL        141.4056  134.9039  155.0022 Cl      1  UNL1       -0.0822
     26 C         140.1270  136.8825  156.0978 C.ar    1  UNL1        0.0127
     27 C         140.1063  138.0615  157.0249 C.ar    1  UNL1        0.0156
     28 N         144.4428  138.3761  162.0706 N.am    1  UNL1       -0.3253
     29 C         144.1602  139.7133  162.6885 C.2     1  UNL1        0.2442
     30 O         145.2120  140.7827  162.6761 O.2     1  UNL1       -0.2703
     31 H         145.3187  138.2002  161.6569 H       1  UNL1        0.1453
     32 H         143.7524  137.6743  162.0788 H       1  UNL1        0.1453
@<TRIPOS>UNITY_ATOM_ATTR
8 1
charge 1
@<TRIPOS>BOND
     1    28    29   am
     2    29    30    2
     3    29     1    1
     4     1     2   ar
     5     2    15    1
     6    15    16   am
     7    16    17    2
     8    16    18   am
     9    18    21    1
    10    21    22   ar
    11    22    23   ar
    12    23    24   ar
    13    24    25    1
    14    24    26   ar
    15    26    27   ar
    16     2     3   ar
    17     3     4   ar
    18     4     5   ar
    19     5     6    1
    20     6     7    1
    21     7     8    1
    22     8     9    1
    23     9    10    1
    24    10    11    1
    25    11    12    1
    26    12    13    1
    27     8    14    1
    28     5     1   ar
    29    13     8    1
    30    27    21   ar
    31    14     4    1
    32    28    31    1
    33    28    32    1
    34    15    19    1
    35    18    20    1
@<TRIPOS>MOLECULE
*****
 32 35 0 0 0
SMALL
GASTEIGER

@<TRIPOS>ATOM
      1 C         140.1848  138.4430  162.5465 C.ar    1  UNL1        0.0694
      2 C         139.1300  139.0964  163.3895 C.ar    1  UNL1        0.0858
      3 S         138.1994  139.8371  162.4755 S.2     1  UNL1       -0.0709
      4 C         138.6789  139.6414  161.0678 C.ar    1  UNL1        0.0598
      5 C         139.9060  138.7798  161.1117 C.ar    1  UNL1       -0.0026
      6 C         140.6110  138.4133  159.8394 C.3     1  UNL1        0.0879
      7 C         140.0888  138.9083  158.5232 C.3     1  UNL1        0.1138
      8 N         138.8618  139.7700  158.4793 N.4     1  UNL1        0.3049
      9 C         139.5667  139.4034  157.2071 C.3     1  UNL1        0.1416
     10 C         139.0446  139.8985  155.8909 C.3     1  UNL1        0.2030
     11 O         137.8175  140.7601  155.8471 O.3     1  UNL1       -0.3412
     12 C         137.1126  141.1267  157.1193 C.3     1  UNL1        0.2030
     13 C         137.6347  140.6316  158.4354 C.3     1  UNL1        0.1416
     14 C         138.1568  140.1365  159.7517 C.3     1  UNL1        0.1424
     15 N         139.0245  139.0222  164.8839 N.am    1  UNL1       -0.2629
     16 C         139.8943  139.8928  165.7414 C.2     1  UNL1        0.3085
     17 O         140.8698  140.8378  165.1044 O.2     1  UNL1       -0.2521
     18 N         139.7888  139.8186  167.2358 N.am    1  UNL1       -0.2680
     19 H         138.3843  138.4020  165.3020 H       1  UNL1        0.1569
     20 H         139.1486  139.1985  167.6539 H       1  UNL1        0.1564
     21 C         140.6587  140.6893  168.0933 C.ar    1  UNL1        0.0516
     22 C         140.2098  142.0742  168.4545 C.ar    1  UNL1        0.0156
     23 C         141.0797  142.9449  169.3119 C.ar    1  UNL1        0.0127
     24 C         142.3985  142.4307  169.8082 C.ar    1  UNL1        0.0578
     25 CL        143.2684  143.3013  170.6656 Cl      1  UNL1       -0.0822
     26 C         142.8474  141.0457  169.4469 C.ar    1  UNL1        0.0127
     27 C         141.9775  140.1751  168.5895 C.ar    1  UNL1        0.0156
     28 N         142.6168  137.5634  162.2986 N.am    1  UNL1       -0.3253
     29 C         141.3192  137.6006  163.0500 C.2     1  UNL1        0.2442
     30 O         141.1560  136.7954  164.3050 O.2     1  UNL1       -0.2703
     31 H         143.3614  137.0105  162.6290 H       1  UNL1        0.1453
     32 H         142.7240  138.0919  161.4749 H       1  UNL1        0.1453
@<TRIPOS>UNITY_ATOM_ATTR
8 1
charge 1
@<TRIPOS>BOND
     1    28    29   am
     2    29    30    2
     3    29     1    1
     4     1     2   ar
     5     2    15    1
     6    15    16   am
     7    16    17    2
     8    16    18   am
     9    18    21    1
    10    21    22   ar
    11    22    23   ar
    12    23    24   ar
    13    24    25    1
    14    24    26   ar
    15    26    27   ar
    16     2     3   ar
    17     3     4   ar
    18     4     5   ar
    19     5     6    1
    20     6     7    1
    21     7     8    1
    22     8     9    1
    23     9    10    1
    24    10    11    1
    25    11    12    1
    26    12    13    1
    27     8    14    1
    28     5     1   ar
    29    13     8    1
    30    27    21   ar
    31    14     4    1
    32    28    31    1
    33    28    32    1
    34    15    19    1
    35    18    20    1
@<TRIPOS>MOLECULE
*****
 32 35 0 0 0
SMALL
GASTEIGER

@<TRIPOS>ATOM
      1 C         139.3411  141.1958  164.4854 C.ar    1  UNL1        0.0694
      2 C         140.1731  142.3012  163.9059 C.ar    1  UNL1        0.0858
      3 S         141.0031  142.8846  165.0108 S.2     1  UNL1       -0.0709
      4 C         140.6840  142.1398  166.2732 C.ar    1  UNL1        0.0598
      5 C         139.6568  141.0960  165.9484 C.ar    1  UNL1       -0.0026
      6 C         139.1417  140.1896  167.0269 C.3     1  UNL1        0.0879
      7 C         139.6538  140.3270  168.4301 C.3     1  UNL1        0.1138
      8 N         140.6810  141.3707  168.7548 N.4     1  UNL1        0.3049
      9 C         140.1659  140.4643  169.8332 C.3     1  UNL1        0.1416
     10 C         140.6780  140.6017  171.2364 C.3     1  UNL1        0.2030
     11 O         141.7052  141.6454  171.5611 O.3     1  UNL1       -0.3412
     12 C         142.2203  142.5518  170.4827 C.3     1  UNL1        0.2030
     13 C         141.7082  142.4145  169.0795 C.3     1  UNL1        0.1416
     14 C         141.1961  142.2772  167.6763 C.3     1  UNL1        0.1424
     15 N         140.1748  142.7452  162.4732 N.am    1  UNL1       -0.2629
     16 C         141.2381  142.2529  161.5367 C.2     1  UNL1        0.3085
     17 O         142.2997  141.3164  162.0330 O.2     1  UNL1       -0.2521
     18 N         141.2398  142.6969  160.1039 N.am    1  UNL1       -0.2680
     19 H         139.4781  143.3598  162.1474 H       1  UNL1        0.1569
     20 H         140.5431  143.3115  159.7782 H       1  UNL1        0.1564
     21 C         142.3031  142.2045  159.1674 C.ar    1  UNL1        0.0516
     22 C         143.6025  142.9450  159.0520 C.ar    1  UNL1        0.0156
     23 C         144.6658  142.4526  158.1155 C.ar    1  UNL1        0.0127
     24 C         144.4297  141.2196  157.2945 C.ar    1  UNL1        0.0578
     25 CL        145.4929  140.7272  156.3580 Cl      1  UNL1       -0.0822
     26 C         143.1303  140.4791  157.4099 C.ar    1  UNL1        0.0127
     27 C         142.0671  140.9715  158.3464 C.ar    1  UNL1        0.0156
     28 N         137.0796  140.9310  163.2342 N.am    1  UNL1       -0.3253
     29 C         138.3647  140.3403  163.7339 C.2     1  UNL1        0.2442
     30 O         138.6733  138.8942  163.4821 O.2     1  UNL1       -0.2703
     31 H         136.4388  140.3695  162.7409 H       1  UNL1        0.1453
     32 H         136.8770  141.8801  163.3994 H       1  UNL1        0.1453
@<TRIPOS>UNITY_ATOM_ATTR
8 1
charge 1
@<TRIPOS>BOND
     1    28    29   am
     2    29    30    2
     3    29     1    1
     4     1     2   ar
     5     2    15    1
     6    15    16   am
     7    16    17    2
     8    16    18   am
     9    18    21    1
    10    21    22   ar
    11    22    23   ar
    12    23    24   ar
    13    24    25    1
    14    24    26   ar
    15    26    27   ar
    16     2     3   ar
    17     3     4   ar
    18     4     5   ar
    19     5     6    1
    20     6     7    1
    21     7     8    1
    22     8     9    1
    23     9    10    1
    24    10    11    1
    25    11    12    1
    26    12    13    1
    27     8    14    1
    28     5     1   ar
    29    13     8    1
    30    27    21   ar
    31    14     4    1
    32    28    31    1
    33    28    32    1
    34    15    19    1
    35    18    20    1
