@<TRIPOS>MOLECULE
*****
 25 28 0 0 0
SMALL
GASTEIGER

@<TRIPOS>ATOM
      1 C         139.5083  140.0592  167.0853 C.3     1  UNL1        0.0841
      2 C         139.8692  140.9062  165.9013 C.3     1  UNL1        0.0376
      3 C         139.5008  140.4579  164.5180 C.3     1  UNL1        0.0739
      4 N         138.7715  139.1623  164.3189 N.3     1  UNL1       -0.2695
      5 C         138.4106  138.3152  165.5030 C.3     1  UNL1        0.0739
      6 C         138.7789  138.7636  166.8862 C.3     1  UNL1        0.0376
      7 O         137.7368  139.5977  169.7869 O.2     1  UNL1       -0.2501
      8 C         139.0624  140.2955  169.7103 C.2     1  UNL1        0.3309
      9 N         139.8065  140.9036  170.8620 N.am    1  UNL1       -0.1647
     10 C         141.0807  141.4916  170.3320 C.2     1  UNL1        0.0706
     11 C         142.2070  142.2182  171.0053 C.3     1  UNL1        0.0705
     12 C         143.3767  142.7001  170.1994 C.2     1  UNL1       -0.0199
     13 C         143.4200  142.4553  168.7201 C.2     1  UNL1       -0.0029
     14 C         142.2937  141.7287  168.0468 C.2     1  UNL1        0.0156
     15 C         141.1240  141.2468  168.8528 C.2     1  UNL1        0.0668
     16 N         139.8767  140.5076  168.4685 N.am    1  UNL1       -0.2423
     17 C         138.4031  138.7139  162.9357 C.3     1  UNL1        0.1200
     18 C         139.4265  138.0451  162.0666 C.3     1  UNL1        0.2226
     19 O         140.4925  137.1902  162.6855 O.3     1  UNL1       -0.4740
     20 C         141.6822  137.8299  163.3377 C.ar    1  UNL1        0.1386
     21 C         141.8614  137.7395  164.8243 C.ar    1  UNL1        0.0369
     22 C         143.0511  138.3793  165.4766 C.ar    1  UNL1        0.0031
     23 C         144.0615  139.1094  164.6422 C.ar    1  UNL1        0.0002
     24 C         143.8823  139.1998  163.1558 C.ar    1  UNL1        0.0031
     25 C         142.6926  138.5600  162.5035 C.ar    1  UNL1        0.0369
@<TRIPOS>BOND
     1     7     8    2
     2     8     9    1
     3     9    10    2
     4    10    11    1
     5    11    12    1
     6    12    13    2
     7    13    14    1
     8    14    15    2
     9    15    16    1
    10    16     1    1
    11     1     2    1
    12     2     3    1
    13     3     4    1
    14     4    17    1
    15    17    18    1
    16    18    19    1
    17    19    20    1
    18    20    21   ar
    19    21    22   ar
    20    22    23   ar
    21    23    24   ar
    22    24    25   ar
    23     4     5    1
    24     5     6    1
    25    16     8   am
    26     6     1    1
    27    15    10    1
    28    25    20   ar
@<TRIPOS>MOLECULE
*****
 25 28 0 0 0
SMALL
GASTEIGER

@<TRIPOS>ATOM
      1 C         141.3313  139.7295  165.6672 C.3     1  UNL1        0.0841
      2 C         142.4688  138.7691  165.4842 C.3     1  UNL1        0.0376
      3 C         143.1641  138.6739  164.1585 C.3     1  UNL1        0.0739
      4 N         142.7218  139.5390  163.0157 N.3     1  UNL1       -0.2695
      5 C         141.5842  140.4994  163.1987 C.3     1  UNL1        0.0739
      6 C         140.8889  140.5947  164.5244 C.3     1  UNL1        0.0376
      7 O         138.1656  139.1597  166.2183 O.2     1  UNL1       -0.2501
      8 C         139.1809  139.5628  167.2462 C.2     1  UNL1        0.3309
      9 N         138.9194  139.7749  168.7079 N.am    1  UNL1       -0.1647
     10 C         140.2128  140.1678  169.3580 C.2     1  UNL1        0.0706
     11 C         140.5616  140.5015  170.7782 C.3     1  UNL1        0.0705
     12 C         141.9713  140.8661  171.1384 C.2     1  UNL1       -0.0199
     13 C         143.0322  140.8969  170.0785 C.2     1  UNL1       -0.0029
     14 C         142.6834  140.5632  168.6583 C.2     1  UNL1        0.0156
     15 C         141.2737  140.1986  168.2981 C.2     1  UNL1        0.0668
     16 N         140.6360  139.8247  166.9929 N.am    1  UNL1       -0.2423
     17 C         143.4171  139.4437  161.6900 C.3     1  UNL1        0.1200
     18 C         144.2404  140.5938  161.1906 C.3     1  UNL1        0.2226
     19 O         145.2253  141.2631  162.1029 O.3     1  UNL1       -0.4740
     20 C         144.7963  142.4286  162.9440 C.ar    1  UNL1        0.1386
     21 C         144.8485  142.3334  164.4401 C.ar    1  UNL1        0.0369
     22 C         144.4195  143.4989  165.2812 C.ar    1  UNL1        0.0031
     23 C         143.9383  144.7597  164.6262 C.ar    1  UNL1        0.0002
     24 C         143.8861  144.8549  163.1301 C.ar    1  UNL1        0.0031
     25 C         144.3151  143.6894  162.2890 C.ar    1  UNL1        0.0369
@<TRIPOS>BOND
     1     7     8    2
     2     8     9    1
     3     9    10    2
     4    10    11    1
     5    11    12    1
     6    12    13    2
     7    13    14    1
     8    14    15    2
     9    15    16    1
    10    16     1    1
    11     1     2    1
    12     2     3    1
    13     3     4    1
    14     4    17    1
    15    17    18    1
    16    18    19    1
    17    19    20    1
    18    20    21   ar
    19    21    22   ar
    20    22    23   ar
    21    23    24   ar
    22    24    25   ar
    23     4     5    1
    24     5     6    1
    25    16     8   am
    26     6     1    1
    27    15    10    1
    28    25    20   ar
@<TRIPOS>MOLECULE
*****
 25 28 0 0 0
SMALL
GASTEIGER

@<TRIPOS>ATOM
      1 C         140.7960  140.1261  166.1675 C.3     1  UNL1        0.0841
      2 C         139.4837  139.4077  166.2751 C.3     1  UNL1        0.0376
      3 C         138.7025  139.0833  165.0363 C.3     1  UNL1        0.0739
      4 N         139.2336  139.4774  163.6900 N.3     1  UNL1       -0.2695
      5 C         140.5459  140.1958  163.5824 C.3     1  UNL1        0.0739
      6 C         141.3272  140.5202  164.8211 C.3     1  UNL1        0.0376
      7 O         143.2973  138.4049  167.3636 O.2     1  UNL1       -0.2501
      8 C         142.7270  139.6594  167.9560 C.2     1  UNL1        0.3309
      9 N         143.2062  140.3430  169.2022 N.am    1  UNL1       -0.1647
     10 C         142.3527  141.5567  169.4227 C.2     1  UNL1        0.0706
     11 C         142.3621  142.6098  170.4907 C.3     1  UNL1        0.0705
     12 C         141.3648  143.7294  170.4487 C.2     1  UNL1       -0.0199
     13 C         140.3581  143.7959  169.3387 C.2     1  UNL1       -0.0029
     14 C         140.3486  142.7428  168.2707 C.2     1  UNL1        0.0156
     15 C         141.3459  141.6231  168.3127 C.2     1  UNL1        0.0668
     16 N         141.5773  140.4506  167.4063 N.am    1  UNL1       -0.2423
     17 C         138.4524  139.1529  162.4513 C.3     1  UNL1        0.1200
     18 C         137.7268  140.2405  161.7159 C.3     1  UNL1        0.2226
     19 O         136.9814  141.2943  162.4800 O.3     1  UNL1       -0.4740
     20 C         137.7135  142.4852  163.0238 C.ar    1  UNL1        0.1386
     21 C         137.8131  142.6918  164.5063 C.ar    1  UNL1        0.0369
     22 C         138.5452  143.8827  165.0500 C.ar    1  UNL1        0.0031
     23 C         139.1776  144.8671  164.1114 C.ar    1  UNL1        0.0002
     24 C         139.0780  144.6606  162.6290 C.ar    1  UNL1        0.0031
     25 C         138.3459  143.4697  162.0852 C.ar    1  UNL1        0.0369
@<TRIPOS>BOND
     1     7     8    2
     2     8     9    1
     3     9    10    2
     4    10    11    1
     5    11    12    1
     6    12    13    2
     7    13    14    1
     8    14    15    2
     9    15    16    1
    10    16     1    1
    11     1     2    1
    12     2     3    1
    13     3     4    1
    14     4    17    1
    15    17    18    1
    16    18    19    1
    17    19    20    1
    18    20    21   ar
    19    21    22   ar
    20    22    23   ar
    21    23    24   ar
    22    24    25   ar
    23     4     5    1
    24     5     6    1
    25    16     8   am
    26     6     1    1
    27    15    10    1
    28    25    20   ar
@<TRIPOS>MOLECULE
*****
 25 28 0 0 0
SMALL
GASTEIGER

@<TRIPOS>ATOM
      1 C         140.8096  139.4336  165.4098 C.3     1  UNL1        0.0841
      2 C         141.3024  140.3453  164.3254 C.3     1  UNL1        0.0376
      3 C         140.6031  140.3794  162.9988 C.3     1  UNL1        0.0739
      4 N         139.4110  139.5017  162.7565 N.3     1  UNL1       -0.2695
      5 C         138.9182  138.5900  163.8409 C.3     1  UNL1        0.0739
      6 C         139.6175  138.5559  165.1675 C.3     1  UNL1        0.0376
      7 O         143.8531  138.3858  165.9476 O.2     1  UNL1       -0.2501
      8 C         142.9078  138.9179  166.9836 C.2     1  UNL1        0.3309
      9 N         143.1954  139.0619  168.4487 N.am    1  UNL1       -0.1647
     10 C         141.9743  139.6325  169.1070 C.2     1  UNL1        0.0706
     11 C         141.6769  139.9889  170.5333 C.3     1  UNL1        0.0705
     12 C         140.3371  140.5541  170.9013 C.2     1  UNL1       -0.0199
     13 C         139.2947  140.7628  169.8430 C.2     1  UNL1       -0.0029
     14 C         139.5922  140.4063  168.4167 C.2     1  UNL1        0.0156
     15 C         140.9320  139.8412  168.0487 C.2     1  UNL1        0.0668
     16 N         141.5089  139.3996  166.7364 N.am    1  UNL1       -0.2423
     17 C         138.7118  139.5358  161.4299 C.3     1  UNL1        0.1200
     18 C         137.8339  140.6989  161.0745 C.3     1  UNL1        0.2226
     19 O         137.0853  141.4295  162.1496 O.3     1  UNL1       -0.4740
     20 C         137.7463  142.5518  162.8936 C.ar    1  UNL1        0.1386
     21 C         138.3398  143.7047  162.1394 C.ar    1  UNL1        0.0369
     22 C         139.0009  144.8269  162.8833 C.ar    1  UNL1        0.0031
     23 C         139.0684  144.7963  164.3815 C.ar    1  UNL1        0.0002
     24 C         138.4749  143.6435  165.1357 C.ar    1  UNL1        0.0031
     25 C         137.8139  142.5213  164.3918 C.ar    1  UNL1        0.0369
@<TRIPOS>BOND
     1     7     8    2
     2     8     9    1
     3     9    10    2
     4    10    11    1
     5    11    12    1
     6    12    13    2
     7    13    14    1
     8    14    15    2
     9    15    16    1
    10    16     1    1
    11     1     2    1
    12     2     3    1
    13     3     4    1
    14     4    17    1
    15    17    18    1
    16    18    19    1
    17    19    20    1
    18    20    21   ar
    19    21    22   ar
    20    22    23   ar
    21    23    24   ar
    22    24    25   ar
    23     4     5    1
    24     5     6    1
    25    16     8   am
    26     6     1    1
    27    15    10    1
    28    25    20   ar
@<TRIPOS>MOLECULE
*****
 25 28 0 0 0
SMALL
GASTEIGER

@<TRIPOS>ATOM
      1 C         142.5135  141.2462  165.8868 C.3     1  UNL1        0.0841
      2 C         143.5229  142.3166  165.5949 C.3     1  UNL1        0.0376
      3 C         143.6712  142.8474  164.1998 C.3     1  UNL1        0.0739
      4 N         142.8102  142.3077  163.0965 N.3     1  UNL1       -0.2695
      5 C         141.8007  141.2372  163.3883 C.3     1  UNL1        0.0739
      6 C         141.6524  140.7065  164.7834 C.3     1  UNL1        0.0376
      7 O         143.6791  138.4057  166.9925 O.2     1  UNL1       -0.2501
      8 C         142.9010  139.4098  167.7901 C.2     1  UNL1        0.3309
      9 N         142.5219  139.2846  169.2360 N.am    1  UNL1       -0.1647
     10 C         141.7519  140.5129  169.6214 C.2     1  UNL1        0.0706
     11 C         141.1264  140.9403  170.9160 C.3     1  UNL1        0.0705
     12 C         140.4041  142.2520  171.0029 C.2     1  UNL1       -0.0199
     13 C         140.3072  143.1363  169.7951 C.2     1  UNL1       -0.0029
     14 C         140.9327  142.7089  168.5005 C.2     1  UNL1        0.0156
     15 C         141.6550  141.3972  168.4137 C.2     1  UNL1        0.0668
     16 N         142.3652  140.7154  167.2819 N.am    1  UNL1       -0.2423
     17 C         142.9585  142.8384  161.7014 C.3     1  UNL1        0.1200
     18 C         142.0422  143.9190  161.2087 C.3     1  UNL1        0.2226
     19 O         141.5266  144.9570  162.1608 O.3     1  UNL1       -0.4740
     20 C         140.3030  144.6790  162.9828 C.ar    1  UNL1        0.1386
     21 C         140.4040  144.6081  164.4778 C.ar    1  UNL1        0.0369
     22 C         139.1804  144.3301  165.2998 C.ar    1  UNL1        0.0031
     23 C         137.8560  144.1230  164.6268 C.ar    1  UNL1        0.0002
     24 C         137.7550  144.1939  163.1319 C.ar    1  UNL1        0.0031
     25 C         138.9785  144.4719  162.3099 C.ar    1  UNL1        0.0369
@<TRIPOS>BOND
     1     7     8    2
     2     8     9    1
     3     9    10    2
     4    10    11    1
     5    11    12    1
     6    12    13    2
     7    13    14    1
     8    14    15    2
     9    15    16    1
    10    16     1    1
    11     1     2    1
    12     2     3    1
    13     3     4    1
    14     4    17    1
    15    17    18    1
    16    18    19    1
    17    19    20    1
    18    20    21   ar
    19    21    22   ar
    20    22    23   ar
    21    23    24   ar
    22    24    25   ar
    23     4     5    1
    24     5     6    1
    25    16     8   am
    26     6     1    1
    27    15    10    1
    28    25    20   ar
@<TRIPOS>MOLECULE
*****
 25 28 0 0 0
SMALL
GASTEIGER

@<TRIPOS>ATOM
      1 C         141.3001  142.3776  165.6432 C.3     1  UNL1        0.0841
      2 C         140.2388  143.4159  165.4302 C.3     1  UNL1        0.0376
      3 C         139.5910  143.5613  164.0851 C.3     1  UNL1        0.0739
      4 N         140.0046  142.6685  162.9530 N.3     1  UNL1       -0.2695
      5 C         141.0660  141.6302  163.1659 C.3     1  UNL1        0.0739
      6 C         141.7138  141.4847  164.5110 C.3     1  UNL1        0.0376
      7 O         144.3160  143.3411  166.4340 O.2     1  UNL1       -0.2501
      8 C         143.3341  142.6750  167.3518 C.2     1  UNL1        0.3309
      9 N         143.5661  142.3348  168.7941 N.am    1  UNL1       -0.1647
     10 C         142.3232  141.6818  169.3221 C.2     1  UNL1        0.0706
     11 C         141.9729  141.1367  170.6749 C.3     1  UNL1        0.0705
     12 C         140.6226  140.5281  170.9116 C.2     1  UNL1       -0.0199
     13 C         139.6224  140.4646  169.7955 C.2     1  UNL1       -0.0029
     14 C         139.9727  141.0097  168.4426 C.2     1  UNL1        0.0156
     15 C         141.3231  141.6183  168.2060 C.2     1  UNL1        0.0668
     16 N         141.9479  142.2322  166.9883 N.am    1  UNL1       -0.2423
     17 C         139.3568  142.8140  161.6079 C.3     1  UNL1        0.1200
     18 C         138.1702  141.9685  161.2515 C.3     1  UNL1        0.2226
     19 O         137.3234  141.3696  162.3353 O.3     1  UNL1       -0.4740
     20 C         137.8517  140.2313  163.1570 C.ar    1  UNL1        0.1386
     21 C         137.9321  140.3578  164.6496 C.ar    1  UNL1        0.0369
     22 C         138.4603  139.2195  165.4713 C.ar    1  UNL1        0.0031
     23 C         138.9082  137.9548  164.8005 C.ar    1  UNL1        0.0002
     24 C         138.8278  137.8283  163.3080 C.ar    1  UNL1        0.0031
     25 C         138.2995  138.9666  162.4863 C.ar    1  UNL1        0.0369
@<TRIPOS>BOND
     1     7     8    2
     2     8     9    1
     3     9    10    2
     4    10    11    1
     5    11    12    1
     6    12    13    2
     7    13    14    1
     8    14    15    2
     9    15    16    1
    10    16     1    1
    11     1     2    1
    12     2     3    1
    13     3     4    1
    14     4    17    1
    15    17    18    1
    16    18    19    1
    17    19    20    1
    18    20    21   ar
    19    21    22   ar
    20    22    23   ar
    21    23    24   ar
    22    24    25   ar
    23     4     5    1
    24     5     6    1
    25    16     8   am
    26     6     1    1
    27    15    10    1
    28    25    20   ar
@<TRIPOS>MOLECULE
*****
 25 28 0 0 0
SMALL
GASTEIGER

@<TRIPOS>ATOM
      1 C         140.4327  141.6357  165.2108 C.3     1  UNL1        0.0841
      2 C         139.9862  143.0545  165.0178 C.3     1  UNL1        0.0376
      3 C         140.0618  143.6866  163.6596 C.3     1  UNL1        0.0739
      4 N         140.5841  142.8997  162.4942 N.3     1  UNL1       -0.2695
      5 C         141.0307  141.4807  162.6872 C.3     1  UNL1        0.0739
      6 C         140.9550  140.8487  164.0454 C.3     1  UNL1        0.0376
      7 O         138.1616  139.5198  166.2181 O.2     1  UNL1       -0.2501
      8 C         139.3131  140.0311  167.0320 C.2     1  UNL1        0.3309
      9 N         139.6230  139.6597  168.4519 N.am    1  UNL1       -0.1647
     10 C         140.8583  140.4027  168.8664 C.2     1  UNL1        0.0706
     11 C         141.6287  140.4301  170.1532 C.3     1  UNL1        0.0705
     12 C         142.8528  141.2883  170.2762 C.2     1  UNL1       -0.0199
     13 C         143.3065  142.1190  169.1125 C.2     1  UNL1       -0.0029
     14 C         142.5361  142.0915  167.8258 C.2     1  UNL1        0.0156
     15 C         141.3120  141.2333  167.7028 C.2     1  UNL1        0.0668
     16 N         140.3570  141.0037  166.5691 N.am    1  UNL1       -0.2423
     17 C         140.6597  143.5317  161.1360 C.3     1  UNL1        0.1200
     18 C         141.9845  143.9694  160.5852 C.3     1  UNL1        0.2226
     19 O         143.0016  144.5995  161.4900 O.3     1  UNL1       -0.4740
     20 C         143.7986  143.7463  162.4316 C.ar    1  UNL1        0.1386
     21 C         144.6466  142.6302  161.8972 C.ar    1  UNL1        0.0369
     22 C         145.4436  141.7769  162.8388 C.ar    1  UNL1        0.0031
     23 C         145.3927  142.0397  164.3148 C.ar    1  UNL1        0.0002
     24 C         144.5447  143.1557  164.8491 C.ar    1  UNL1        0.0031
     25 C         143.7477  144.0090  163.9075 C.ar    1  UNL1        0.0369
@<TRIPOS>BOND
     1     7     8    2
     2     8     9    1
     3     9    10    2
     4    10    11    1
     5    11    12    1
     6    12    13    2
     7    13    14    1
     8    14    15    2
     9    15    16    1
    10    16     1    1
    11     1     2    1
    12     2     3    1
    13     3     4    1
    14     4    17    1
    15    17    18    1
    16    18    19    1
    17    19    20    1
    18    20    21   ar
    19    21    22   ar
    20    22    23   ar
    21    23    24   ar
    22    24    25   ar
    23     4     5    1
    24     5     6    1
    25    16     8   am
    26     6     1    1
    27    15    10    1
    28    25    20   ar
@<TRIPOS>MOLECULE
*****
 25 28 0 0 0
SMALL
GASTEIGER

@<TRIPOS>ATOM
      1 C         139.2714  140.5334  165.3877 C.3     1  UNL1        0.0841
      2 C         140.5895  140.7146  164.6952 C.3     1  UNL1        0.0376
      3 C         140.6368  140.8874  163.2059 C.3     1  UNL1        0.0739
      4 N         139.3659  140.8789  162.4092 N.3     1  UNL1       -0.2695
      5 C         138.0478  140.6978  163.1017 C.3     1  UNL1        0.0739
      6 C         138.0005  140.5250  164.5910 C.3     1  UNL1        0.0376
      7 O         137.4224  138.3907  167.0125 O.2     1  UNL1       -0.2501
      8 C         138.3742  139.3758  167.6238 C.2     1  UNL1        0.3309
      9 N         138.6433  139.5489  169.0893 N.am    1  UNL1       -0.1647
     10 C         139.6594  140.6408  169.2482 C.2     1  UNL1        0.0706
     11 C         140.3042  141.2430  170.4613 C.3     1  UNL1        0.0705
     12 C         141.3079  142.3469  170.3071 C.2     1  UNL1       -0.0199
     13 C         141.6669  142.8486  168.9398 C.2     1  UNL1       -0.0029
     14 C         141.0222  142.2464  167.7267 C.2     1  UNL1        0.0156
     15 C         140.0184  141.1425  167.8809 C.2     1  UNL1        0.0668
     16 N         139.2241  140.3607  166.8770 N.am    1  UNL1       -0.2423
     17 C         139.4132  141.0517  160.9199 C.3     1  UNL1        0.1200
     18 C         138.7021  142.2046  160.2756 C.3     1  UNL1        0.2226
     19 O         139.0363  143.6108  160.6770 O.3     1  UNL1       -0.4740
     20 C         139.0699  143.9885  162.1283 C.ar    1  UNL1        0.1386
     21 C         140.3717  144.3525  162.7787 C.ar    1  UNL1        0.0369
     22 C         140.4053  144.7302  164.2299 C.ar    1  UNL1        0.0031
     23 C         139.1370  144.7441  165.0308 C.ar    1  UNL1        0.0002
     24 C         137.8352  144.3802  164.3804 C.ar    1  UNL1        0.0031
     25 C         137.8017  144.0024  162.9292 C.ar    1  UNL1        0.0369
@<TRIPOS>BOND
     1     7     8    2
     2     8     9    1
     3     9    10    2
     4    10    11    1
     5    11    12    1
     6    12    13    2
     7    13    14    1
     8    14    15    2
     9    15    16    1
    10    16     1    1
    11     1     2    1
    12     2     3    1
    13     3     4    1
    14     4    17    1
    15    17    18    1
    16    18    19    1
    17    19    20    1
    18    20    21   ar
    19    21    22   ar
    20    22    23   ar
    21    23    24   ar
    22    24    25   ar
    23     4     5    1
    24     5     6    1
    25    16     8   am
    26     6     1    1
    27    15    10    1
    28    25    20   ar
@<TRIPOS>MOLECULE
*****
 25 28 0 0 0
SMALL
GASTEIGER

@<TRIPOS>ATOM
      1 C         140.4736  139.5480  165.4682 C.3     1  UNL1        0.0841
      2 C         140.4571  140.5961  164.3953 C.3     1  UNL1        0.0376
      3 C         140.6690  140.2062  162.9625 C.3     1  UNL1        0.0739
      4 N         140.8975  138.7681  162.6024 N.3     1  UNL1       -0.2695
      5 C         140.9140  137.7199  163.6753 C.3     1  UNL1        0.0739
      6 C         140.7021  138.1098  165.1081 C.3     1  UNL1        0.0376
      7 O         137.9495  138.6709  167.3416 O.2     1  UNL1       -0.2501
      8 C         139.1015  139.5347  167.7621 C.2     1  UNL1        0.3309
      9 N         139.2955  140.1471  169.1176 N.am    1  UNL1       -0.1647
     10 C         140.5756  140.9287  169.0942 C.2     1  UNL1        0.0706
     11 C         141.2746  141.7415  170.1434 C.3     1  UNL1        0.0705
     12 C         142.5707  142.4249  169.8226 C.2     1  UNL1       -0.0199
     13 C         143.1678  142.2956  168.4527 C.2     1  UNL1       -0.0029
     14 C         142.4688  141.4828  167.4035 C.2     1  UNL1        0.0156
     15 C         141.1727  140.7994  167.7243 C.2     1  UNL1        0.0668
     16 N         140.2616  139.9379  166.9010 N.am    1  UNL1       -0.2423
     17 C         141.1094  138.3781  161.1696 C.3     1  UNL1        0.1200
     18 C         142.1387  139.0903  160.3429 C.3     1  UNL1        0.2226
     19 O         143.5932  138.9693  160.6888 O.3     1  UNL1       -0.4740
     20 C         144.1711  139.7951  161.7998 C.ar    1  UNL1        0.1386
     21 C         144.3536  139.1960  163.1629 C.ar    1  UNL1        0.0369
     22 C         144.9314  140.0218  164.2738 C.ar    1  UNL1        0.0031
     23 C         145.3268  141.4466  164.0216 C.ar    1  UNL1        0.0002
     24 C         145.1443  142.0457  162.6586 C.ar    1  UNL1        0.0031
     25 C         144.5665  141.2199  161.5477 C.ar    1  UNL1        0.0369
@<TRIPOS>BOND
     1     7     8    2
     2     8     9    1
     3     9    10    2
     4    10    11    1
     5    11    12    1
     6    12    13    2
     7    13    14    1
     8    14    15    2
     9    15    16    1
    10    16     1    1
    11     1     2    1
    12     2     3    1
    13     3     4    1
    14     4    17    1
    15    17    18    1
    16    18    19    1
    17    19    20    1
    18    20    21   ar
    19    21    22   ar
    20    22    23   ar
    21    23    24   ar
    22    24    25   ar
    23     4     5    1
    24     5     6    1
    25    16     8   am
    26     6     1    1
    27    15    10    1
    28    25    20   ar
