@<TRIPOS>MOLECULE
*****
 25 27 0 0 0
SMALL
GASTEIGER

@<TRIPOS>ATOM
      1 C         140.7797  145.4599  162.8770 C.3     1  UNL1        0.0532
      2 C         141.3351  144.2954  163.6422 C.ar    1  UNL1        0.0761
      3 N         140.4087  143.2656  164.2175 N.ar    1  UNL1       -0.2298
      4 C         140.9641  142.1011  164.9827 C.ar    1  UNL1        0.1650
      5 N         142.4459  141.9665  165.1726 N.ar    1  UNL1       -0.1918
      6 C         143.3723  142.9964  164.5972 C.ar    1  UNL1        0.2382
      7 C         142.8169  144.1609  163.8320 C.ar    1  UNL1        0.1242
      8 CL        143.7434  145.1908  163.2567 Cl      1  UNL1       -0.0761
      9 C         140.0376  141.0712  165.5581 C.ar    1  UNL1        0.0359
     10 C         139.0324  140.3907  164.6768 C.ar    1  UNL1        0.0039
     11 C         138.1060  139.3609  165.2521 C.ar    1  UNL1        0.0115
     12 C         138.1846  139.0114  166.7087 C.ar    1  UNL1        0.0577
     13 CL        137.2581  137.9815  167.2840 Cl      1  UNL1       -0.0822
     14 C         139.1897  139.6918  167.5900 C.ar    1  UNL1        0.0115
     15 C         140.1162  140.7218  167.0147 C.ar    1  UNL1        0.0039
     16 O         144.8542  142.8618  164.7871 O.3     1  UNL1       -0.4596
     17 C         145.6368  141.9115  163.9302 C.3     1  UNL1        0.2086
     18 C         145.3288  140.4438  163.9636 C.3     1  UNL1        0.0647
     19 C         144.4372  139.8406  162.9190 C.3     1  UNL1        0.0759
     20 N         143.2867  138.9691  163.3274 N.3     1  UNL1       -0.2726
     21 C         143.0291  138.6990  164.7802 C.3     1  UNL1        0.0721
     22 C         141.8786  137.8275  165.1886 C.3     1  UNL1        0.0174
     23 C         140.9858  137.2259  164.1441 C.3     1  UNL1        0.0029
     24 C         141.2434  137.4959  162.6913 C.3     1  UNL1        0.0174
     25 C         142.3939  138.3675  162.2829 C.3     1  UNL1        0.0721
@<TRIPOS>BOND
     1     1     2    1
     2     2     3   ar
     3     3     4   ar
     4     4     9    1
     5     9    10   ar
     6    10    11   ar
     7    11    12   ar
     8    12    13    1
     9    12    14   ar
    10    14    15   ar
    11     4     5   ar
    12     5     6   ar
    13     6    16    1
    14    16    17    1
    15    17    18    1
    16    18    19    1
    17    19    20    1
    18    20    21    1
    19    21    22    1
    20    22    23    1
    21    23    24    1
    22    24    25    1
    23     6     7   ar
    24     7     8    1
    25     7     2   ar
    26    15     9   ar
    27    25    20    1
@<TRIPOS>MOLECULE
*****
 25 27 0 0 0
SMALL
GASTEIGER

@<TRIPOS>ATOM
      1 C         143.6718  144.8221  163.1385 C.3     1  UNL1        0.0532
      2 C         142.5333  144.2758  163.9481 C.ar    1  UNL1        0.0761
      3 N         142.7920  143.2430  165.0046 N.ar    1  UNL1       -0.2298
      4 C         141.6535  142.6967  165.8142 C.ar    1  UNL1        0.1650
      5 N         140.2563  143.1833  165.5673 N.ar    1  UNL1       -0.1918
      6 C         139.9976  144.2162  164.5108 C.ar    1  UNL1        0.2382
      7 C         141.1361  144.7624  163.7012 C.ar    1  UNL1        0.1242
      8 CL        140.8774  145.7953  162.6446 Cl      1  UNL1       -0.0761
      9 C         141.9123  141.6638  166.8707 C.ar    1  UNL1        0.0359
     10 C         142.4147  140.3045  166.4835 C.ar    1  UNL1        0.0039
     11 C         142.6735  139.2716  167.5400 C.ar    1  UNL1        0.0115
     12 C         142.4298  139.5980  168.9837 C.ar    1  UNL1        0.0577
     13 CL        142.6886  138.5651  170.0401 Cl      1  UNL1       -0.0822
     14 C         141.9273  140.9573  169.3708 C.ar    1  UNL1        0.0115
     15 C         141.6686  141.9902  168.3143 C.ar    1  UNL1        0.0039
     16 O         138.6004  144.7028  164.2638 O.3     1  UNL1       -0.4596
     17 C         137.7043  143.9612  163.3167 C.3     1  UNL1        0.2086
     18 C         138.1499  142.6543  162.7306 C.3     1  UNL1        0.0647
     19 C         137.3500  141.4098  162.9779 C.3     1  UNL1        0.0759
     20 N         137.9816  140.2370  163.6676 N.3     1  UNL1       -0.2726
     21 C         138.3400  139.0096  162.8833 C.3     1  UNL1        0.0721
     22 C         138.9716  137.8368  163.5729 C.3     1  UNL1        0.0174
     23 C         139.2449  137.8914  165.0468 C.3     1  UNL1        0.0029
     24 C         138.8865  139.1187  165.8311 C.3     1  UNL1        0.0174
     25 C         138.2548  140.2916  165.1415 C.3     1  UNL1        0.0721
@<TRIPOS>BOND
     1     1     2    1
     2     2     3   ar
     3     3     4   ar
     4     4     9    1
     5     9    10   ar
     6    10    11   ar
     7    11    12   ar
     8    12    13    1
     9    12    14   ar
    10    14    15   ar
    11     4     5   ar
    12     5     6   ar
    13     6    16    1
    14    16    17    1
    15    17    18    1
    16    18    19    1
    17    19    20    1
    18    20    21    1
    19    21    22    1
    20    22    23    1
    21    23    24    1
    22    24    25    1
    23     6     7   ar
    24     7     8    1
    25     7     2   ar
    26    15     9   ar
    27    25    20    1
@<TRIPOS>MOLECULE
*****
 25 27 0 0 0
SMALL
GASTEIGER

@<TRIPOS>ATOM
      1 C         144.5628  143.5889  165.5117 C.3     1  UNL1        0.0532
      2 C         143.4780  142.9358  164.7076 C.ar    1  UNL1        0.0761
      3 N         142.4508  142.0809  165.3887 N.ar    1  UNL1       -0.2298
      4 C         141.3660  141.4277  164.5846 C.ar    1  UNL1        0.1650
      5 N         141.3084  141.6295  163.0994 N.ar    1  UNL1       -0.1918
      6 C         142.3356  142.4844  162.4183 C.ar    1  UNL1        0.2382
      7 C         143.4204  143.1375  163.2224 C.ar    1  UNL1        0.1242
      8 CL        144.4477  143.9925  162.5412 Cl      1  UNL1       -0.0761
      9 C         140.3388  140.5727  165.2658 C.ar    1  UNL1        0.0359
     10 C         139.4843  139.6406  164.4589 C.ar    1  UNL1        0.0039
     11 C         138.4572  138.7857  165.1400 C.ar    1  UNL1        0.0115
     12 C         138.2844  138.8629  166.6281 C.ar    1  UNL1        0.0577
     13 CL        137.2572  138.0079  167.3092 Cl      1  UNL1       -0.0822
     14 C         139.1389  139.7950  167.4350 C.ar    1  UNL1        0.0115
     15 C         140.1661  140.6499  166.7538 C.ar    1  UNL1        0.0039
     16 O         142.2781  142.6862  160.9330 O.3     1  UNL1       -0.4596
     17 C         141.2964  143.6562  160.3454 C.3     1  UNL1        0.2086
     18 C         141.1801  145.0408  160.9107 C.3     1  UNL1        0.0647
     19 C         139.8855  145.4980  161.5147 C.3     1  UNL1        0.0759
     20 N         139.2139  144.6665  162.5671 N.3     1  UNL1       -0.2726
     21 C         138.2714  143.5699  162.1682 C.3     1  UNL1        0.0721
     22 C         137.5998  142.7384  163.2206 C.3     1  UNL1        0.0174
     23 C         137.8707  143.0035  164.6719 C.3     1  UNL1        0.0029
     24 C         138.8133  144.1000  165.0709 C.3     1  UNL1        0.0174
     25 C         139.4849  144.9316  164.0184 C.3     1  UNL1        0.0721
@<TRIPOS>BOND
     1     1     2    1
     2     2     3   ar
     3     3     4   ar
     4     4     9    1
     5     9    10   ar
     6    10    11   ar
     7    11    12   ar
     8    12    13    1
     9    12    14   ar
    10    14    15   ar
    11     4     5   ar
    12     5     6   ar
    13     6    16    1
    14    16    17    1
    15    17    18    1
    16    18    19    1
    17    19    20    1
    18    20    21    1
    19    21    22    1
    20    22    23    1
    21    23    24    1
    22    24    25    1
    23     6     7   ar
    24     7     8    1
    25     7     2   ar
    26    15     9   ar
    27    25    20    1
@<TRIPOS>MOLECULE
*****
 25 27 0 0 0
SMALL
GASTEIGER

@<TRIPOS>ATOM
      1 C         143.9792  139.1706  163.5776 C.3     1  UNL1        0.0532
      2 C         142.5756  139.1815  164.1065 C.ar    1  UNL1        0.0761
      3 N         142.2550  139.9279  165.3675 N.ar    1  UNL1       -0.2298
      4 C         140.8514  139.9387  165.8964 C.ar    1  UNL1        0.1650
      5 N         139.7683  139.2031  165.1643 N.ar    1  UNL1       -0.1918
      6 C         140.0889  138.4567  163.9034 C.ar    1  UNL1        0.2382
      7 C         141.4926  138.4459  163.3745 C.ar    1  UNL1        0.1242
      8 CL        141.8131  137.6994  162.1135 Cl      1  UNL1       -0.0761
      9 C         140.5308  140.6852  167.1574 C.ar    1  UNL1        0.0359
     10 C         139.7509  140.0138  168.2487 C.ar    1  UNL1        0.0039
     11 C         139.4303  140.7602  169.5097 C.ar    1  UNL1        0.0115
     12 C         139.8897  142.1781  169.6794 C.ar    1  UNL1        0.0577
     13 CL        139.5691  142.9245  170.9403 Cl      1  UNL1       -0.0822
     14 C         140.6696  142.8494  168.5881 C.ar    1  UNL1        0.0115
     15 C         140.9902  142.1030  167.3271 C.ar    1  UNL1        0.0039
     16 O         139.0059  137.7211  163.1713 O.3     1  UNL1       -0.4596
     17 C         138.0462  138.4737  162.2981 C.3     1  UNL1        0.2086
     18 C         138.3258  139.9014  161.9329 C.3     1  UNL1        0.0647
     19 C         137.6259  141.0121  162.6584 C.3     1  UNL1        0.0759
     20 N         138.4245  142.0893  163.3305 N.3     1  UNL1       -0.2726
     21 C         137.7522  143.0460  164.2700 C.3     1  UNL1        0.0721
     22 C         138.5509  144.1232  164.9422 C.3     1  UNL1        0.0174
     23 C         140.0219  144.2436  164.6748 C.3     1  UNL1        0.0029
     24 C         140.6943  143.2869  163.7354 C.3     1  UNL1        0.0174
     25 C         139.8956  142.2097  163.0632 C.3     1  UNL1        0.0721
@<TRIPOS>BOND
     1     1     2    1
     2     2     3   ar
     3     3     4   ar
     4     4     9    1
     5     9    10   ar
     6    10    11   ar
     7    11    12   ar
     8    12    13    1
     9    12    14   ar
    10    14    15   ar
    11     4     5   ar
    12     5     6   ar
    13     6    16    1
    14    16    17    1
    15    17    18    1
    16    18    19    1
    17    19    20    1
    18    20    21    1
    19    21    22    1
    20    22    23    1
    21    23    24    1
    22    24    25    1
    23     6     7   ar
    24     7     8    1
    25     7     2   ar
    26    15     9   ar
    27    25    20    1
@<TRIPOS>MOLECULE
*****
 25 27 0 0 0
SMALL
GASTEIGER

@<TRIPOS>ATOM
      1 C         145.5617  141.6235  163.1097 C.3     1  UNL1        0.0532
      2 C         144.3178  140.8938  163.5225 C.ar    1  UNL1        0.0761
      3 N         143.6190  141.2641  164.7970 N.ar    1  UNL1       -0.2298
      4 C         142.3752  140.5344  165.2098 C.ar    1  UNL1        0.1650
      5 N         141.8301  139.4343  164.3480 N.ar    1  UNL1       -0.1918
      6 C         142.5289  139.0640  163.0735 C.ar    1  UNL1        0.2382
      7 C         143.7728  139.7937  162.6607 C.ar    1  UNL1        0.1242
      8 CL        144.4716  139.4233  161.3861 Cl      1  UNL1       -0.0761
      9 C         141.6764  140.9048  166.4844 C.ar    1  UNL1        0.0359
     10 C         141.1447  142.2949  166.6715 C.ar    1  UNL1        0.0039
     11 C         140.4459  142.6653  167.9461 C.ar    1  UNL1        0.0115
     12 C         140.2788  141.6457  169.0335 C.ar    1  UNL1        0.0577
     13 CL        139.5801  142.0161  170.3080 Cl      1  UNL1       -0.0822
     14 C         140.8106  140.2556  168.8464 C.ar    1  UNL1        0.0115
     15 C         141.5094  139.8852  167.5718 C.ar    1  UNL1        0.0039
     16 O         141.9839  137.9638  162.2116 O.3     1  UNL1       -0.4596
     17 C         141.2764  138.2949  160.9311 C.3     1  UNL1        0.2086
     18 C         139.8508  138.7607  160.9606 C.3     1  UNL1        0.0647
     19 C         138.8585  138.0821  161.8576 C.3     1  UNL1        0.0759
     20 N         138.6518  138.5778  163.2580 N.3     1  UNL1       -0.2726
     21 C         138.7604  137.6277  164.4137 C.3     1  UNL1        0.0721
     22 C         138.5537  138.1235  165.8142 C.3     1  UNL1        0.0174
     23 C         138.2383  139.5694  166.0591 C.3     1  UNL1        0.0029
     24 C         138.1297  140.5195  164.9035 C.3     1  UNL1        0.0174
     25 C         138.3364  140.0237  163.5029 C.3     1  UNL1        0.0721
@<TRIPOS>BOND
     1     1     2    1
     2     2     3   ar
     3     3     4   ar
     4     4     9    1
     5     9    10   ar
     6    10    11   ar
     7    11    12   ar
     8    12    13    1
     9    12    14   ar
    10    14    15   ar
    11     4     5   ar
    12     5     6   ar
    13     6    16    1
    14    16    17    1
    15    17    18    1
    16    18    19    1
    17    19    20    1
    18    20    21    1
    19    21    22    1
    20    22    23    1
    21    23    24    1
    22    24    25    1
    23     6     7   ar
    24     7     8    1
    25     7     2   ar
    26    15     9   ar
    27    25    20    1
@<TRIPOS>MOLECULE
*****
 25 27 0 0 0
SMALL
GASTEIGER

@<TRIPOS>ATOM
      1 C         139.6180  145.0517  163.5472 C.3     1  UNL1        0.0532
      2 C         139.4691  143.6585  164.0829 C.ar    1  UNL1        0.0761
      3 N         140.2307  143.2397  165.3054 N.ar    1  UNL1       -0.2298
      4 C         140.0818  141.8465  165.8410 C.ar    1  UNL1        0.1650
      5 N         139.1715  140.8722  165.1542 N.ar    1  UNL1       -0.1918
      6 C         138.4099  141.2910  163.9317 C.ar    1  UNL1        0.2382
      7 C         138.5587  142.6842  163.3960 C.ar    1  UNL1        0.1242
      8 CL        137.7971  143.1030  162.1734 Cl      1  UNL1       -0.0761
      9 C         140.8435  141.4277  167.0636 C.ar    1  UNL1        0.0359
     10 C         142.0949  142.1567  167.4539 C.ar    1  UNL1        0.0039
     11 C         142.8565  141.7380  168.6764 C.ar    1  UNL1        0.0115
     12 C         142.3667  140.5901  169.5087 C.ar    1  UNL1        0.0577
     13 CL        143.1283  140.1713  170.7312 Cl      1  UNL1       -0.0822
     14 C         141.1152  139.8611  169.1183 C.ar    1  UNL1        0.0115
     15 C         140.3536  140.2799  167.8958 C.ar    1  UNL1        0.0039
     16 O         137.4995  140.3166  163.2447 O.3     1  UNL1       -0.4596
     17 C         138.0665  139.2962  162.3029 C.3     1  UNL1        0.2086
     18 C         138.6721  138.0337  162.8409 C.3     1  UNL1        0.0647
     19 C         140.1180  137.7272  162.5851 C.3     1  UNL1        0.0759
     20 N         141.1792  138.3434  163.4477 N.3     1  UNL1       -0.2726
     21 C         141.8247  139.6335  163.0361 C.3     1  UNL1        0.0721
     22 C         142.8859  140.2497  163.8987 C.3     1  UNL1        0.0174
     23 C         143.3017  139.5760  165.1727 C.3     1  UNL1        0.0029
     24 C         142.6563  138.2861  165.5843 C.3     1  UNL1        0.0174
     25 C         141.5950  137.6697  164.7217 C.3     1  UNL1        0.0721
@<TRIPOS>BOND
     1     1     2    1
     2     2     3   ar
     3     3     4   ar
     4     4     9    1
     5     9    10   ar
     6    10    11   ar
     7    11    12   ar
     8    12    13    1
     9    12    14   ar
    10    14    15   ar
    11     4     5   ar
    12     5     6   ar
    13     6    16    1
    14    16    17    1
    15    17    18    1
    16    18    19    1
    17    19    20    1
    18    20    21    1
    19    21    22    1
    20    22    23    1
    21    23    24    1
    22    24    25    1
    23     6     7   ar
    24     7     8    1
    25     7     2   ar
    26    15     9   ar
    27    25    20    1
@<TRIPOS>MOLECULE
*****
 25 27 0 0 0
SMALL
GASTEIGER

@<TRIPOS>ATOM
      1 C         138.3333  144.4435  163.2112 C.3     1  UNL1        0.0532
      2 C         139.6851  144.0153  163.7004 C.ar    1  UNL1        0.0761
      3 N         139.8012  143.1401  164.9130 N.ar    1  UNL1       -0.2298
      4 C         141.1530  142.7118  165.4023 C.ar    1  UNL1        0.1650
      5 N         142.3886  143.1588  164.6788 N.ar    1  UNL1       -0.1918
      6 C         142.2725  144.0340  163.4662 C.ar    1  UNL1        0.2382
      7 C         140.9207  144.4623  162.9770 C.ar    1  UNL1        0.1242
      8 CL        140.8046  145.3375  161.7643 Cl      1  UNL1       -0.0761
      9 C         141.2691  141.8366  166.6149 C.ar    1  UNL1        0.0359
     10 C         142.5716  141.7472  167.3534 C.ar    1  UNL1        0.0039
     11 C         142.6878  140.8720  168.5661 C.ar    1  UNL1        0.0115
     12 C         141.5013  140.0861  169.0402 C.ar    1  UNL1        0.0577
     13 CL        141.6175  139.2109  170.2529 Cl      1  UNL1       -0.0822
     14 C         140.1988  140.1755  168.3018 C.ar    1  UNL1        0.0115
     15 C         140.0827  141.0508  167.0891 C.ar    1  UNL1        0.0039
     16 O         143.5082  144.4810  162.7427 O.3     1  UNL1       -0.4596
     17 C         144.3206  143.4901  161.9631 C.3     1  UNL1        0.2086
     18 C         144.9145  142.2982  162.6538 C.3     1  UNL1        0.0647
     19 C         144.4150  140.9204  162.3345 C.3     1  UNL1        0.0759
     20 N         143.7921  140.0806  163.4099 N.3     1  UNL1       -0.2726
     21 C         144.6257  139.5917  164.5571 C.3     1  UNL1        0.0721
     22 C         144.0028  138.7519  165.6326 C.3     1  UNL1        0.0174
     23 C         142.5462  138.4008  165.5608 C.3     1  UNL1        0.0029
     24 C         141.7126  138.8896  164.4137 C.3     1  UNL1        0.0174
     25 C         142.3355  139.7295  163.3381 C.3     1  UNL1        0.0721
@<TRIPOS>BOND
     1     1     2    1
     2     2     3   ar
     3     3     4   ar
     4     4     9    1
     5     9    10   ar
     6    10    11   ar
     7    11    12   ar
     8    12    13    1
     9    12    14   ar
    10    14    15   ar
    11     4     5   ar
    12     5     6   ar
    13     6    16    1
    14    16    17    1
    15    17    18    1
    16    18    19    1
    17    19    20    1
    18    20    21    1
    19    21    22    1
    20    22    23    1
    21    23    24    1
    22    24    25    1
    23     6     7   ar
    24     7     8    1
    25     7     2   ar
    26    15     9   ar
    27    25    20    1
@<TRIPOS>MOLECULE
*****
 25 27 0 0 0
SMALL
GASTEIGER

@<TRIPOS>ATOM
      1 C         138.9629  137.5649  163.1909 C.3     1  UNL1        0.0532
      2 C         138.8105  138.9370  163.7776 C.ar    1  UNL1        0.0761
      3 N         139.3551  139.2333  165.1435 N.ar    1  UNL1       -0.2298
      4 C         139.2028  140.6053  165.7302 C.ar    1  UNL1        0.1650
      5 N         138.5059  141.6810  164.9511 N.ar    1  UNL1       -0.1918
      6 C         137.9613  141.3848  163.5853 C.ar    1  UNL1        0.2382
      7 C         138.1136  140.0127  162.9985 C.ar    1  UNL1        0.1242
      8 CL        137.5690  139.7164  161.6326 Cl      1  UNL1       -0.0761
      9 C         139.7474  140.9016  167.0962 C.ar    1  UNL1        0.0359
     10 C         139.5444  139.9214  168.2133 C.ar    1  UNL1        0.0039
     11 C         140.0890  140.2176  169.5792 C.ar    1  UNL1        0.0115
     12 C         140.8366  141.4940  169.8280 C.ar    1  UNL1        0.0577
     13 CL        141.3812  141.7902  171.1938 Cl      1  UNL1       -0.0822
     14 C         141.0396  142.4742  168.7108 C.ar    1  UNL1        0.0115
     15 C         140.4950  142.1780  167.3449 C.ar    1  UNL1        0.0039
     16 O         137.2643  142.4605  162.8061 O.3     1  UNL1       -0.4596
     17 C         137.8922  143.8162  162.6724 C.3     1  UNL1        0.2086
     18 C         139.1821  143.9748  161.9232 C.3     1  UNL1        0.0647
     19 C         140.2533  144.8788  162.4573 C.3     1  UNL1        0.0759
     20 N         141.4233  144.3001  163.1963 N.3     1  UNL1       -0.2726
     21 C         141.4595  142.8344  163.5135 C.3     1  UNL1        0.0721
     22 C         142.6295  142.2557  164.2525 C.3     1  UNL1        0.0174
     23 C         143.7633  143.1426  164.6744 C.3     1  UNL1        0.0029
     24 C         143.7271  144.6082  164.3572 C.3     1  UNL1        0.0174
     25 C         142.5570  145.1870  163.6182 C.3     1  UNL1        0.0721
@<TRIPOS>BOND
     1     1     2    1
     2     2     3   ar
     3     3     4   ar
     4     4     9    1
     5     9    10   ar
     6    10    11   ar
     7    11    12   ar
     8    12    13    1
     9    12    14   ar
    10    14    15   ar
    11     4     5   ar
    12     5     6   ar
    13     6    16    1
    14    16    17    1
    15    17    18    1
    16    18    19    1
    17    19    20    1
    18    20    21    1
    19    21    22    1
    20    22    23    1
    21    23    24    1
    22    24    25    1
    23     6     7   ar
    24     7     8    1
    25     7     2   ar
    26    15     9   ar
    27    25    20    1
@<TRIPOS>MOLECULE
*****
 25 27 0 0 0
SMALL
GASTEIGER

@<TRIPOS>ATOM
      1 C         143.7924  144.8375  163.3111 C.3     1  UNL1        0.0532
      2 C         142.9441  143.6025  163.3826 C.ar    1  UNL1        0.0761
      3 N         142.3248  143.1924  164.6858 N.ar    1  UNL1       -0.2298
      4 C         141.4765  141.9574  164.7573 C.ar    1  UNL1        0.1650
      5 N         141.2476  141.1324  163.5256 N.ar    1  UNL1       -0.1918
      6 C         141.8669  141.5425  162.2225 C.ar    1  UNL1        0.2382
      7 C         142.7152  142.7775  162.1510 C.ar    1  UNL1        0.1242
      8 CL        143.3345  143.1876  160.8477 Cl      1  UNL1       -0.0761
      9 C         140.8572  141.5473  166.0605 C.ar    1  UNL1        0.0359
     10 C         141.0541  142.3932  167.2835 C.ar    1  UNL1        0.0039
     11 C         140.4348  141.9832  168.5867 C.ar    1  UNL1        0.0115
     12 C         139.6186  140.7272  168.6670 C.ar    1  UNL1        0.0577
     13 CL        138.9993  140.3172  169.9701 Cl      1  UNL1       -0.0822
     14 C         139.4217  139.8813  167.4440 C.ar    1  UNL1        0.0115
     15 C         140.0411  140.2914  166.1407 C.ar    1  UNL1        0.0039
     16 O         141.6379  140.7175  160.9908 O.3     1  UNL1       -0.4596
     17 C         140.3581  140.8580  160.2211 C.3     1  UNL1        0.2086
     18 C         139.6633  142.1859  160.1573 C.3     1  UNL1        0.0647
     19 C         138.4203  142.4215  160.9631 C.3     1  UNL1        0.0759
     20 N         138.5073  143.1145  162.2906 N.3     1  UNL1       -0.2726
     21 C         137.7323  142.5897  163.4628 C.3     1  UNL1        0.0721
     22 C         137.8192  143.2827  164.7903 C.3     1  UNL1        0.0174
     23 C         138.6812  144.5004  164.9456 C.3     1  UNL1        0.0029
     24 C         139.4562  145.0252  163.7735 C.3     1  UNL1        0.0174
     25 C         139.3692  144.3322  162.4459 C.3     1  UNL1        0.0721
@<TRIPOS>BOND
     1     1     2    1
     2     2     3   ar
     3     3     4   ar
     4     4     9    1
     5     9    10   ar
     6    10    11   ar
     7    11    12   ar
     8    12    13    1
     9    12    14   ar
    10    14    15   ar
    11     4     5   ar
    12     5     6   ar
    13     6    16    1
    14    16    17    1
    15    17    18    1
    16    18    19    1
    17    19    20    1
    18    20    21    1
    19    21    22    1
    20    22    23    1
    21    23    24    1
    22    24    25    1
    23     6     7   ar
    24     7     8    1
    25     7     2   ar
    26    15     9   ar
    27    25    20    1
