@<TRIPOS>MOLECULE
*****
 28 31 0 0 0
SMALL
GASTEIGER

@<TRIPOS>ATOM
      1 C         139.6818  140.4481  169.4764 C.2     1  UNL1        0.2529
      2 O         138.9652  139.7143  170.5710 O.2     1  UNL1       -0.2698
      3 N         139.3147  140.2017  168.0430 N.am    1  UNL1       -0.2759
      4 C         138.2310  139.2215  167.7042 C.3     1  UNL1        0.0954
      5 C         137.8639  138.9751  166.2709 C.3     1  UNL1        0.0410
      6 C         138.5806  139.7089  165.1763 C.3     1  UNL1        0.0722
      7 C         139.6643  140.6891  165.5151 C.3     1  UNL1        0.0410
      8 C         140.0313  140.9355  166.9485 C.3     1  UNL1        0.0954
      9 C         144.4325  142.6736  170.0753 C.3     1  UNL1        0.1548
     10 N         142.9492  142.4513  170.0905 N.ar    1  UNL1       -0.2380
     11 N         141.9172  143.4221  170.5827 N.ar    1  UNL1       -0.1667
     12 C         140.5675  142.7900  170.4126 C.ar    1  UNL1        0.1270
     13 C         140.7655  141.4283  169.8152 C.ar    1  UNL1        0.1024
     14 C         142.2375  141.2190  169.6162 C.ar    1  UNL1        0.1408
     15 CL        142.8841  139.9928  169.0433 Cl      1  UNL1       -0.0615
     16 N         138.2135  139.4625  163.7430 N.pl3   1  UNL1       -0.3367
     17 H         137.9559  138.5589  163.4491 H       1  UNL1        0.1465
     18 C         138.2389  140.5929  162.7573 C.2     1  UNL1        0.0322
     19 C         137.8542  141.9759  163.1921 C.3     1  UNL1        0.1278
     20 C         137.8795  143.1063  162.2063 C.2     1  UNL1        0.2513
     21 O         137.4948  144.4894  162.6412 O.2     1  UNL1       -0.2726
     22 N         138.2897  142.8536  160.7858 N.am    1  UNL1       -0.1789
     23 C         138.6744  141.4705  160.3510 C.ar    1  UNL1        0.0742
     24 C         139.0845  141.2178  158.9304 C.ar    1  UNL1        0.0166
     25 C         139.4692  139.8348  158.4956 C.ar    1  UNL1        0.0013
     26 C         139.4438  138.7044  159.4813 C.ar    1  UNL1        0.0001
     27 C         139.0337  138.9571  160.9019 C.ar    1  UNL1        0.0022
     28 C         138.6490  140.3401  161.3367 C.ar    1  UNL1        0.0248
@<TRIPOS>BOND
     1     9    10    1
     2    10    11   ar
     3    11    12   ar
     4    12    13   ar
     5    13     1    1
     6     1     2    2
     7     1     3   am
     8     3     4    1
     9     4     5    1
    10     5     6    1
    11     6    16    1
    12    16    18    1
    13    18    19    1
    14    19    20    1
    15    20    21    2
    16    20    22    1
    17    22    23    2
    18    23    24   ar
    19    24    25   ar
    20    25    26   ar
    21    26    27   ar
    22    27    28   ar
    23     6     7    1
    24     7     8    1
    25    13    14   ar
    26    14    15    1
    27    14    10   ar
    28     8     3    1
    29    28    18    2
    30    28    23   ar
    31    16    17    1
@<TRIPOS>MOLECULE
*****
 28 31 0 0 0
SMALL
GASTEIGER

@<TRIPOS>ATOM
      1 C         139.2020  144.0655  162.1098 C.2     1  UNL1        0.2529
      2 O         137.9969  144.9426  162.2787 O.2     1  UNL1       -0.2698
      3 N         139.5511  143.0591  163.1658 N.am    1  UNL1       -0.2759
      4 C         138.6951  142.9297  164.3908 C.3     1  UNL1        0.0954
      5 C         139.0442  141.9233  165.4468 C.3     1  UNL1        0.0410
      6 C         140.2493  141.0462  165.2779 C.3     1  UNL1        0.0722
      7 C         141.1053  141.1756  164.0529 C.3     1  UNL1        0.0410
      8 C         140.7562  142.1821  162.9969 C.3     1  UNL1        0.0954
      9 C         141.3776  143.1583  157.3849 C.3     1  UNL1        0.1548
     10 N         141.0580  143.7779  158.7130 N.ar    1  UNL1       -0.2380
     11 N         141.6925  145.0101  159.2865 N.ar    1  UNL1       -0.1667
     12 C         141.0745  145.2679  160.6288 C.ar    1  UNL1        0.1270
     13 C         140.0580  144.1949  160.8848 C.ar    1  UNL1        0.1024
     14 C         140.0478  143.2741  159.7008 C.ar    1  UNL1        0.1408
     15 CL        139.1799  142.0621  159.5338 Cl      1  UNL1       -0.0615
     16 N         140.5984  140.0398  166.3339 N.pl3   1  UNL1       -0.3367
     17 H         140.9949  139.1756  166.0784 H       1  UNL1        0.1465
     18 C         140.3434  140.3500  167.7791 C.2     1  UNL1        0.0322
     19 C         139.0901  139.8597  168.4416 C.3     1  UNL1        0.1278
     20 C         138.8350  140.1699  169.8869 C.2     1  UNL1        0.2513
     21 O         137.5817  139.6796  170.5493 O.2     1  UNL1       -0.2726
     22 N         139.8333  140.9703  170.6696 N.am    1  UNL1       -0.1789
     23 C         141.0867  141.4606  170.0072 C.ar    1  UNL1        0.0742
     24 C         142.0849  142.2611  170.7899 C.ar    1  UNL1        0.0166
     25 C         143.3382  142.7513  170.1275 C.ar    1  UNL1        0.0013
     26 C         143.5932  142.4411  168.6822 C.ar    1  UNL1        0.0001
     27 C         142.5950  141.6407  167.8994 C.ar    1  UNL1        0.0022
     28 C         141.3417  141.1504  168.5619 C.ar    1  UNL1        0.0248
@<TRIPOS>BOND
     1     9    10    1
     2    10    11   ar
     3    11    12   ar
     4    12    13   ar
     5    13     1    1
     6     1     2    2
     7     1     3   am
     8     3     4    1
     9     4     5    1
    10     5     6    1
    11     6    16    1
    12    16    18    1
    13    18    19    1
    14    19    20    1
    15    20    21    2
    16    20    22    1
    17    22    23    2
    18    23    24   ar
    19    24    25   ar
    20    25    26   ar
    21    26    27   ar
    22    27    28   ar
    23     6     7    1
    24     7     8    1
    25    13    14   ar
    26    14    15    1
    27    14    10   ar
    28     8     3    1
    29    28    18    2
    30    28    23   ar
    31    16    17    1
@<TRIPOS>MOLECULE
*****
 28 31 0 0 0
SMALL
GASTEIGER

@<TRIPOS>ATOM
      1 C         142.8655  144.3587  162.3530 C.2     1  UNL1        0.2529
      2 O         144.1285  145.1619  162.4526 O.2     1  UNL1       -0.2698
      3 N         142.6654  143.1630  163.2363 N.am    1  UNL1       -0.2759
      4 C         143.7283  142.7705  164.2192 C.3     1  UNL1        0.0954
      5 C         143.5283  141.5748  165.1026 C.3     1  UNL1        0.0410
      6 C         142.2653  140.7716  165.0030 C.3     1  UNL1        0.0722
      7 C         141.2024  141.1642  164.0200 C.3     1  UNL1        0.0410
      8 C         141.4025  142.3600  163.1367 C.3     1  UNL1        0.0954
      9 C         140.1213  144.9051  157.8751 C.3     1  UNL1        0.1548
     10 N         140.5412  145.0024  159.3117 N.ar    1  UNL1       -0.2380
     11 N         139.7927  145.7084  160.4032 N.ar    1  UNL1       -0.1667
     12 C         140.5722  145.5532  161.6753 C.ar    1  UNL1        0.1270
     13 C         141.8026  144.7513  161.3701 C.ar    1  UNL1        0.1024
     14 C         141.7834  144.4109  159.9093 C.ar    1  UNL1        0.1408
     15 CL        142.8238  143.6182  159.1750 Cl      1  UNL1       -0.0615
     16 N         142.0652  139.5760  165.8863 N.pl3   1  UNL1       -0.3367
     17 H         142.6607  138.7965  165.8020 H       1  UNL1        0.1465
     18 C         140.9578  139.5678  166.8981 C.2     1  UNL1        0.0322
     19 C         139.5892  139.0937  166.5082 C.3     1  UNL1        0.1278
     20 C         138.4818  139.0856  167.5200 C.2     1  UNL1        0.2513
     21 O         137.1131  138.6115  167.1301 O.2     1  UNL1       -0.2726
     22 N         138.7431  139.5515  168.9216 N.am    1  UNL1       -0.1789
     23 C         140.1118  140.0256  169.3115 C.ar    1  UNL1        0.0742
     24 C         140.3731  140.4916  170.7132 C.ar    1  UNL1        0.0166
     25 C         141.7417  140.9657  171.1030 C.ar    1  UNL1        0.0013
     26 C         142.8491  140.9738  170.0912 C.ar    1  UNL1        0.0001
     27 C         142.5878  140.5079  168.6896 C.ar    1  UNL1        0.0022
     28 C         141.2192  140.0338  168.2998 C.ar    1  UNL1        0.0248
@<TRIPOS>BOND
     1     9    10    1
     2    10    11   ar
     3    11    12   ar
     4    12    13   ar
     5    13     1    1
     6     1     2    2
     7     1     3   am
     8     3     4    1
     9     4     5    1
    10     5     6    1
    11     6    16    1
    12    16    18    1
    13    18    19    1
    14    19    20    1
    15    20    21    2
    16    20    22    1
    17    22    23    2
    18    23    24   ar
    19    24    25   ar
    20    25    26   ar
    21    26    27   ar
    22    27    28   ar
    23     6     7    1
    24     7     8    1
    25    13    14   ar
    26    14    15    1
    27    14    10   ar
    28     8     3    1
    29    28    18    2
    30    28    23   ar
    31    16    17    1
@<TRIPOS>MOLECULE
*****
 28 31 0 0 0
SMALL
GASTEIGER

@<TRIPOS>ATOM
      1 C         139.4321  140.5123  169.3632 C.2     1  UNL1        0.2529
      2 O         138.5220  140.0746  170.4723 O.2     1  UNL1       -0.2698
      3 N         139.2315  139.9816  167.9747 N.am    1  UNL1       -0.2759
      4 C         138.1208  139.0130  167.6952 C.3     1  UNL1        0.0954
      5 C         137.9202  138.4823  166.3066 C.3     1  UNL1        0.0410
      6 C         138.8304  138.9200  165.1976 C.3     1  UNL1        0.0722
      7 C         139.9411  139.8886  165.4771 C.3     1  UNL1        0.0410
      8 C         140.1417  140.4193  166.8657 C.3     1  UNL1        0.0954
      9 C         144.2453  142.5684  170.0608 C.3     1  UNL1        0.1548
     10 N         142.7553  142.4259  169.9634 N.ar    1  UNL1       -0.2380
     11 N         141.7492  143.5167  170.1823 N.ar    1  UNL1       -0.1667
     12 C         140.3818  142.9326  169.9842 C.ar    1  UNL1        0.1270
     13 C         140.5429  141.4809  169.6427 C.ar    1  UNL1        0.1024
     14 C         142.0098  141.1678  169.6299 C.ar    1  UNL1        0.1408
     15 CL        142.6235  139.8311  169.3352 Cl      1  UNL1       -0.0615
     16 N         138.6298  138.3893  163.8091 N.pl3   1  UNL1       -0.3367
     17 H         137.8985  137.7564  163.6249 H       1  UNL1        0.1465
     18 C         139.5433  138.8228  162.7011 C.2     1  UNL1        0.0322
     19 C         140.6869  137.9456  162.2855 C.3     1  UNL1        0.1278
     20 C         141.6005  138.3791  161.1776 C.2     1  UNL1        0.2513
     21 O         142.7441  137.5018  160.7619 O.2     1  UNL1       -0.2726
     22 N         141.3705  139.6897  160.4853 N.am    1  UNL1       -0.1789
     23 C         140.2269  140.5670  160.9010 C.ar    1  UNL1        0.0742
     24 C         139.9969  141.8776  160.2087 C.ar    1  UNL1        0.0166
     25 C         138.8534  142.7548  160.6244 C.ar    1  UNL1        0.0013
     26 C         137.9398  142.3213  161.7323 C.ar    1  UNL1        0.0001
     27 C         138.1698  141.0107  162.4245 C.ar    1  UNL1        0.0022
     28 C         139.3133  140.1335  162.0089 C.ar    1  UNL1        0.0248
@<TRIPOS>BOND
     1     9    10    1
     2    10    11   ar
     3    11    12   ar
     4    12    13   ar
     5    13     1    1
     6     1     2    2
     7     1     3   am
     8     3     4    1
     9     4     5    1
    10     5     6    1
    11     6    16    1
    12    16    18    1
    13    18    19    1
    14    19    20    1
    15    20    21    2
    16    20    22    1
    17    22    23    2
    18    23    24   ar
    19    24    25   ar
    20    25    26   ar
    21    26    27   ar
    22    27    28   ar
    23     6     7    1
    24     7     8    1
    25    13    14   ar
    26    14    15    1
    27    14    10   ar
    28     8     3    1
    29    28    18    2
    30    28    23   ar
    31    16    17    1
@<TRIPOS>MOLECULE
*****
 28 31 0 0 0
SMALL
GASTEIGER

@<TRIPOS>ATOM
      1 C         142.7262  139.0999  167.4490 C.2     1  UNL1        0.2529
      2 O         143.8822  138.1657  167.2459 O.2     1  UNL1       -0.2698
      3 N         141.6466  139.1936  166.4119 N.am    1  UNL1       -0.2759
      4 C         141.7229  138.3533  165.1718 C.3     1  UNL1        0.0954
      5 C         140.6432  138.4470  164.1347 C.3     1  UNL1        0.0410
      6 C         139.4872  139.3811  164.3378 C.3     1  UNL1        0.0722
      7 C         139.4110  140.2215  165.5779 C.3     1  UNL1        0.0410
      8 C         140.4907  140.1277  166.6150 C.3     1  UNL1        0.0954
      9 C         142.8759  143.2331  170.7314 C.3     1  UNL1        0.1548
     10 N         142.7188  141.8401  170.1979 N.ar    1  UNL1       -0.2380
     11 N         142.3464  140.6267  170.9972 N.ar    1  UNL1       -0.1667
     12 C         142.3039  139.4524  170.0648 C.ar    1  UNL1        0.1270
     13 C         142.6500  139.9402  168.6891 C.ar    1  UNL1        0.1024
     14 C         142.9063  141.4158  168.7714 C.ar    1  UNL1        0.1408
     15 CL        143.2840  142.3102  167.6280 Cl      1  UNL1       -0.0615
     16 N         138.4076  139.4749  163.3007 N.pl3   1  UNL1       -0.3367
     17 H         137.7405  138.7555  163.2181 H       1  UNL1        0.1465
     18 C         138.3442  140.6647  162.3894 C.2     1  UNL1        0.0322
     19 C         137.9770  142.0113  162.9386 C.3     1  UNL1        0.1278
     20 C         137.9137  143.2011  162.0274 C.2     1  UNL1        0.2513
     21 O         137.5465  144.5478  162.5767 O.2     1  UNL1       -0.2726
     22 N         138.2175  143.0442  160.5669 N.am    1  UNL1       -0.1789
     23 C         138.5846  141.6975  160.0176 C.ar    1  UNL1        0.0742
     24 C         138.8884  141.5406  158.5571 C.ar    1  UNL1        0.0166
     25 C         139.2556  140.1940  158.0079 C.ar    1  UNL1        0.0013
     26 C         139.3189  139.0042  158.9192 C.ar    1  UNL1        0.0001
     27 C         139.0152  139.1611  160.3797 C.ar    1  UNL1        0.0022
     28 C         138.6480  140.5077  160.9289 C.ar    1  UNL1        0.0248
@<TRIPOS>BOND
     1     9    10    1
     2    10    11   ar
     3    11    12   ar
     4    12    13   ar
     5    13     1    1
     6     1     2    2
     7     1     3   am
     8     3     4    1
     9     4     5    1
    10     5     6    1
    11     6    16    1
    12    16    18    1
    13    18    19    1
    14    19    20    1
    15    20    21    2
    16    20    22    1
    17    22    23    2
    18    23    24   ar
    19    24    25   ar
    20    25    26   ar
    21    26    27   ar
    22    27    28   ar
    23     6     7    1
    24     7     8    1
    25    13    14   ar
    26    14    15    1
    27    14    10   ar
    28     8     3    1
    29    28    18    2
    30    28    23   ar
    31    16    17    1
@<TRIPOS>MOLECULE
*****
 28 31 0 0 0
SMALL
GASTEIGER

@<TRIPOS>ATOM
      1 C         143.3532  142.1819  166.9078 C.2     1  UNL1        0.2529
      2 O         144.2869  143.2894  166.5181 O.2     1  UNL1       -0.2698
      3 N         143.0770  141.0616  165.9494 N.am    1  UNL1       -0.2759
      4 C         143.7345  141.0487  164.6012 C.3     1  UNL1        0.0954
      5 C         143.4583  139.9284  163.6428 C.3     1  UNL1        0.0410
      6 C         142.5246  138.8209  164.0325 C.3     1  UNL1        0.0722
      7 C         141.8671  138.8339  165.3807 C.3     1  UNL1        0.0410
      8 C         142.1433  139.9543  166.3391 C.3     1  UNL1        0.0954
      9 C         139.7644  142.7471  170.7395 C.3     1  UNL1        0.1548
     10 N         141.0461  142.4546  170.0172 N.ar    1  UNL1       -0.2380
     11 N         142.3216  141.9749  170.6439 N.ar    1  UNL1       -0.1667
     12 C         143.3412  141.8143  169.5554 C.ar    1  UNL1        0.1270
     13 C         142.6956  142.1949  168.2559 C.ar    1  UNL1        0.1024
     14 C         141.2772  142.5906  168.5414 C.ar    1  UNL1        0.1408
     15 CL        140.2672  143.0428  167.5288 Cl      1  UNL1       -0.0615
     16 N         142.2484  137.7006  163.0741 N.pl3   1  UNL1       -0.3367
     17 H         142.3560  136.7663  163.3649 H       1  UNL1        0.1465
     18 C         141.8083  138.0040  161.6726 C.2     1  UNL1        0.0322
     19 C         142.7581  137.8057  160.5287 C.3     1  UNL1        0.1278
     20 C         142.3179  138.1090  159.1272 C.2     1  UNL1        0.2513
     21 O         143.2678  137.9107  157.9833 O.2     1  UNL1       -0.2726
     22 N         140.9280  138.6106  158.8695 N.am    1  UNL1       -0.1789
     23 C         139.9781  138.8089  160.0135 C.ar    1  UNL1        0.0742
     24 C         138.5881  139.3105  159.7558 C.ar    1  UNL1        0.0166
     25 C         137.6384  139.5087  160.8997 C.ar    1  UNL1        0.0013
     26 C         138.0785  139.2054  162.3012 C.ar    1  UNL1        0.0001
     27 C         139.4684  138.7038  162.5589 C.ar    1  UNL1        0.0022
     28 C         140.4182  138.5056  161.4150 C.ar    1  UNL1        0.0248
@<TRIPOS>BOND
     1     9    10    1
     2    10    11   ar
     3    11    12   ar
     4    12    13   ar
     5    13     1    1
     6     1     2    2
     7     1     3   am
     8     3     4    1
     9     4     5    1
    10     5     6    1
    11     6    16    1
    12    16    18    1
    13    18    19    1
    14    19    20    1
    15    20    21    2
    16    20    22    1
    17    22    23    2
    18    23    24   ar
    19    24    25   ar
    20    25    26   ar
    21    26    27   ar
    22    27    28   ar
    23     6     7    1
    24     7     8    1
    25    13    14   ar
    26    14    15    1
    27    14    10   ar
    28     8     3    1
    29    28    18    2
    30    28    23   ar
    31    16    17    1
@<TRIPOS>MOLECULE
*****
 28 31 0 0 0
SMALL
GASTEIGER

@<TRIPOS>ATOM
      1 C         139.7518  140.0952  168.0066 C.2     1  UNL1        0.2529
      2 O         138.6473  139.3913  168.7378 O.2     1  UNL1       -0.2698
      3 N         139.6226  140.3704  166.5378 N.am    1  UNL1       -0.2759
      4 C         138.3889  139.9417  165.8001 C.3     1  UNL1        0.0954
      5 C         138.2597  140.2168  164.3312 C.3     1  UNL1        0.0410
      6 C         139.3642  140.9207  163.6000 C.3     1  UNL1        0.0722
      7 C         140.5979  141.3495  164.3377 C.3     1  UNL1        0.0410
      8 C         140.7271  141.0743  165.8066 C.3     1  UNL1        0.0954
      9 C         143.2948  143.0496  170.5757 C.3     1  UNL1        0.1548
     10 N         142.6141  141.8820  169.9252 N.ar    1  UNL1       -0.2380
     11 N         143.1540  140.4855  169.8338 N.ar    1  UNL1       -0.1667
     12 C         142.1475  139.6462  169.1040 C.ar    1  UNL1        0.1270
     13 C         140.9855  140.5240  168.7443 C.ar    1  UNL1        0.1024
     14 C         141.2739  141.9057  169.2518 C.ar    1  UNL1        0.1408
     15 CL        140.3792  143.1014  169.1108 Cl      1  UNL1       -0.0615
     16 N         139.2350  141.1959  162.1312 N.pl3   1  UNL1       -0.3367
     17 H         138.7030  140.5936  161.5625 H       1  UNL1        0.1465
     18 C         139.9165  142.3887  161.5287 C.2     1  UNL1        0.0322
     19 C         139.3196  143.7551  161.6917 C.3     1  UNL1        0.1278
     20 C         140.0011  144.9479  161.0893 C.2     1  UNL1        0.2513
     21 O         139.4042  146.3144  161.2523 O.2     1  UNL1       -0.2726
     22 N         141.2793  144.7743  160.3239 N.am    1  UNL1       -0.1789
     23 C         141.8762  143.4078  160.1609 C.ar    1  UNL1        0.0742
     24 C         143.1545  143.2341  159.3955 C.ar    1  UNL1        0.0166
     25 C         143.7513  141.8677  159.2325 C.ar    1  UNL1        0.0013
     26 C         143.0698  140.6749  159.8349 C.ar    1  UNL1        0.0001
     27 C         141.7916  140.8485  160.6003 C.ar    1  UNL1        0.0022
     28 C         141.1948  142.2150  160.7633 C.ar    1  UNL1        0.0248
@<TRIPOS>BOND
     1     9    10    1
     2    10    11   ar
     3    11    12   ar
     4    12    13   ar
     5    13     1    1
     6     1     2    2
     7     1     3   am
     8     3     4    1
     9     4     5    1
    10     5     6    1
    11     6    16    1
    12    16    18    1
    13    18    19    1
    14    19    20    1
    15    20    21    2
    16    20    22    1
    17    22    23    2
    18    23    24   ar
    19    24    25   ar
    20    25    26   ar
    21    26    27   ar
    22    27    28   ar
    23     6     7    1
    24     7     8    1
    25    13    14   ar
    26    14    15    1
    27    14    10   ar
    28     8     3    1
    29    28    18    2
    30    28    23   ar
    31    16    17    1
@<TRIPOS>MOLECULE
*****
 28 31 0 0 0
SMALL
GASTEIGER

@<TRIPOS>ATOM
      1 C         142.7735  140.1311  168.7273 C.2     1  UNL1        0.2529
      2 O         143.0003  138.9533  169.6282 O.2     1  UNL1       -0.2698
      3 N         142.8310  139.9584  167.2384 N.am    1  UNL1       -0.2759
      4 C         143.1153  138.6081  166.6503 C.3     1  UNL1        0.0954
      5 C         143.1728  138.4355  165.1614 C.3     1  UNL1        0.0410
      6 C         142.9460  139.6132  164.2605 C.3     1  UNL1        0.0722
      7 C         142.6617  140.9636  164.8486 C.3     1  UNL1        0.0410
      8 C         142.6042  141.1362  166.3376 C.3     1  UNL1        0.0954
      9 C         140.2648  144.5296  170.2239 C.3     1  UNL1        0.1548
     10 N         141.3361  143.5032  170.0033 N.ar    1  UNL1       -0.2380
     11 N         142.7675  143.6155  170.4374 N.ar    1  UNL1       -0.1667
     12 C         143.4803  142.3660  170.0122 C.ar    1  UNL1        0.1270
     13 C         142.4892  141.4814  169.3154 C.ar    1  UNL1        0.1024
     14 C         141.1641  142.1843  169.3098 C.ar    1  UNL1        0.1408
     15 CL        139.8906  141.6602  168.7153 Cl      1  UNL1       -0.0615
     16 N         143.0035  139.4406  162.7716 N.pl3   1  UNL1       -0.3367
     17 H         143.7251  138.9082  162.3653 H       1  UNL1        0.1465
     18 C         141.9616  140.0791  161.9018 C.2     1  UNL1        0.0322
     19 C         142.3087  141.2821  161.0757 C.3     1  UNL1        0.1278
     20 C         141.2667  141.9206  160.2059 C.2     1  UNL1        0.2513
     21 O         141.6139  143.1236  159.3798 O.2     1  UNL1       -0.2726
     22 N         139.8777  141.3562  160.1620 N.am    1  UNL1       -0.1789
     23 C         139.5305  140.1531  160.9881 C.ar    1  UNL1        0.0742
     24 C         138.1415  139.5887  160.9443 C.ar    1  UNL1        0.0166
     25 C         137.7944  138.3858  161.7703 C.ar    1  UNL1        0.0013
     26 C         138.8364  137.7472  162.6402 C.ar    1  UNL1        0.0001
     27 C         140.2254  138.3117  162.6840 C.ar    1  UNL1        0.0022
     28 C         140.5725  139.5146  161.8580 C.ar    1  UNL1        0.0248
@<TRIPOS>BOND
     1     9    10    1
     2    10    11   ar
     3    11    12   ar
     4    12    13   ar
     5    13     1    1
     6     1     2    2
     7     1     3   am
     8     3     4    1
     9     4     5    1
    10     5     6    1
    11     6    16    1
    12    16    18    1
    13    18    19    1
    14    19    20    1
    15    20    21    2
    16    20    22    1
    17    22    23    2
    18    23    24   ar
    19    24    25   ar
    20    25    26   ar
    21    26    27   ar
    22    27    28   ar
    23     6     7    1
    24     7     8    1
    25    13    14   ar
    26    14    15    1
    27    14    10   ar
    28     8     3    1
    29    28    18    2
    30    28    23   ar
    31    16    17    1
@<TRIPOS>MOLECULE
*****
 28 31 0 0 0
SMALL
GASTEIGER

@<TRIPOS>ATOM
      1 C         140.0794  145.3733  160.6404 C.2     1  UNL1        0.2529
      2 O         139.2333  146.5989  160.8198 O.2     1  UNL1       -0.2698
      3 N         140.5411  144.5987  161.8391 N.am    1  UNL1       -0.2759
      4 C         140.1567  145.0496  163.2171 C.3     1  UNL1        0.0954
      5 C         140.6183  144.2749  164.4157 C.3     1  UNL1        0.0410
      6 C         141.4645  143.0494  164.2364 C.3     1  UNL1        0.0722
      7 C         141.8489  142.5985  162.8583 C.3     1  UNL1        0.0410
      8 C         141.3872  143.3732  161.6597 C.3     1  UNL1        0.0954
      9 C         140.2208  142.7036  156.0870 C.3     1  UNL1        0.1548
     10 N         140.5288  143.6953  157.1694 N.ar    1  UNL1       -0.2380
     11 N         141.5820  144.7619  157.1142 N.ar    1  UNL1       -0.1667
     12 C         141.5419  145.5204  158.4078 C.ar    1  UNL1        0.1270
     13 C         140.4639  144.9224  159.2624 C.ar    1  UNL1        0.1024
     14 C         139.8378  143.7945  158.4971 C.ar    1  UNL1        0.1408
     15 CL        138.7173  142.9194  158.9753 Cl      1  UNL1       -0.0615
     16 N         141.9261  142.2747  165.4350 N.pl3   1  UNL1       -0.3367
     17 H         142.8500  142.3750  165.7599 H       1  UNL1        0.1465
     18 C         140.9801  141.3473  166.1386 C.2     1  UNL1        0.0322
     19 C         140.3859  140.1827  165.4034 C.3     1  UNL1        0.1278
     20 C         139.4399  139.2553  166.1070 C.2     1  UNL1        0.2513
     21 O         138.8456  138.0907  165.3718 O.2     1  UNL1       -0.2726
     22 N         139.0881  139.4925  167.5457 N.am    1  UNL1       -0.1789
     23 C         139.6824  140.6572  168.2810 C.ar    1  UNL1        0.0742
     24 C         139.3307  140.8944  169.7197 C.ar    1  UNL1        0.0166
     25 C         139.9249  142.0591  170.4548 C.ar    1  UNL1        0.0013
     26 C         140.8709  142.9864  169.7512 C.ar    1  UNL1        0.0001
     27 C         141.2226  142.7492  168.3125 C.ar    1  UNL1        0.0022
     28 C         140.6284  141.5846  167.5774 C.ar    1  UNL1        0.0248
@<TRIPOS>BOND
     1     9    10    1
     2    10    11   ar
     3    11    12   ar
     4    12    13   ar
     5    13     1    1
     6     1     2    2
     7     1     3   am
     8     3     4    1
     9     4     5    1
    10     5     6    1
    11     6    16    1
    12    16    18    1
    13    18    19    1
    14    19    20    1
    15    20    21    2
    16    20    22    1
    17    22    23    2
    18    23    24   ar
    19    24    25   ar
    20    25    26   ar
    21    26    27   ar
    22    27    28   ar
    23     6     7    1
    24     7     8    1
    25    13    14   ar
    26    14    15    1
    27    14    10   ar
    28     8     3    1
    29    28    18    2
    30    28    23   ar
    31    16    17    1
