@<TRIPOS>MOLECULE
*****
 29 32 0 0 0
SMALL
GASTEIGER

@<TRIPOS>ATOM
      1 C         141.9497  139.0117  161.7340 C.ar    1  UNL1        0.0681
      2 C         142.8492  137.8498  161.4322 C.ar    1  UNL1        0.0208
      3 C         143.3101  137.6036  160.0262 C.ar    1  UNL1        0.0384
      4 C         142.8716  138.5193  158.9219 C.ar    1  UNL1        0.1386
      5 C         141.9721  139.6811  159.2238 C.ar    1  UNL1        0.0384
      6 C         141.5112  139.9273  160.6299 C.ar    1  UNL1        0.0208
      7 C         138.7975  139.4335  167.8279 C.ar    1  UNL1        0.1402
      8 C         137.9498  138.6245  166.8916 C.ar    1  UNL1        0.0372
      9 C         138.4107  138.3783  165.4855 C.ar    1  UNL1        0.0094
     10 C         139.7193  138.9412  165.0158 C.ar    1  UNL1        0.0744
     11 C         140.1802  138.6950  163.6098 C.ar    1  UNL1        0.2670
     12 O         139.3325  137.8860  162.6734 O.2     1  UNL1       -0.2665
     13 N         141.4888  139.2579  163.1401 N.ar    1  UNL1       -0.2626
     14 C         142.3366  140.0669  164.0765 C.ar    1  UNL1        0.1268
     15 C         143.6452  140.6298  163.6068 C.3     1  UNL1        0.0723
     16 N         141.8757  140.3131  165.4825 N.ar    1  UNL1       -0.2317
     17 C         140.5670  139.7502  165.9522 C.ar    1  UNL1        0.0902
     18 C         140.1061  139.9964  167.3582 C.ar    1  UNL1        0.0562
     19 C         139.0607  140.6689  170.0983 C.3     1  UNL1        0.2525
     20 O         138.3366  139.6797  169.2340 O.3     1  UNL1       -0.4714
     21 O         143.3325  138.2732  157.5159 O.3     1  UNL1       -0.4754
     22 C         142.5810  137.3179  156.6367 C.3     1  UNL1        0.2068
     23 C         143.2373  136.0515  156.1722 C.3     1  UNL1        0.0646
     24 C         142.7639  134.7269  156.6929 C.3     1  UNL1        0.0759
     25 N         143.7314  133.5903  156.8417 N.3     1  UNL1       -0.2726
     26 C         144.0831  132.5875  155.7831 C.3     1  UNL1        0.0721
     27 C         145.0862  131.6344  156.3623 C.3     1  UNL1        0.0188
     28 C         145.3545  132.0482  157.7789 C.3     1  UNL1        0.0188
     29 C         144.5172  133.2570  158.0751 C.3     1  UNL1        0.0721
@<TRIPOS>BOND
     1    19    20    1
     2    20     7    1
     3     7     8   ar
     4     8     9   ar
     5     9    10   ar
     6    10    11   ar
     7    11    12    2
     8    11    13   ar
     9    13     1    1
    10     1     2   ar
    11     2     3   ar
    12     3     4   ar
    13     4    21    1
    14    21    22    1
    15    22    23    1
    16    23    24    1
    17    24    25    1
    18    25    26    1
    19    26    27    1
    20    27    28    1
    21    28    29    1
    22     4     5   ar
    23     5     6   ar
    24    13    14   ar
    25    14    15    1
    26    14    16   ar
    27    16    17   ar
    28    17    18   ar
    29    18     7   ar
    30    17    10   ar
    31     6     1   ar
    32    29    25    1
@<TRIPOS>MOLECULE
*****
 29 32 0 0 0
SMALL
GASTEIGER

@<TRIPOS>ATOM
      1 C         139.1806  139.1835  164.4683 C.ar    1  UNL1        0.0681
      2 C         138.4698  138.1116  165.2403 C.ar    1  UNL1        0.0208
      3 C         138.2539  138.2684  166.7164 C.ar    1  UNL1        0.0384
      4 C         138.7488  139.4970  167.4204 C.ar    1  UNL1        0.1386
      5 C         139.4595  140.5688  166.6484 C.ar    1  UNL1        0.0384
      6 C         139.6754  140.4120  165.1723 C.ar    1  UNL1        0.0208
      7 C         139.2451  139.3796  157.5975 C.ar    1  UNL1        0.1402
      8 C         138.2303  140.3595  158.1072 C.ar    1  UNL1        0.0372
      9 C         138.0144  140.5162  159.5833 C.ar    1  UNL1        0.0094
     10 C         138.8134  139.6931  160.5497 C.ar    1  UNL1        0.0744
     11 C         138.5975  139.8499  162.0258 C.ar    1  UNL1        0.2670
     12 O         137.5826  140.8298  162.5354 O.2     1  UNL1       -0.2665
     13 N         139.3964  139.0267  162.9922 N.ar    1  UNL1       -0.2626
     14 C         140.4114  138.0467  162.4825 C.ar    1  UNL1        0.1268
     15 C         141.2104  137.2236  163.4490 C.3     1  UNL1        0.0723
     16 N         140.6273  137.8900  161.0065 N.ar    1  UNL1       -0.2317
     17 C         139.8282  138.7132  160.0400 C.ar    1  UNL1        0.0902
     18 C         140.0441  138.5564  158.5639 C.ar    1  UNL1        0.0562
     19 C         138.2994  139.3276  155.1783 C.3     1  UNL1        0.2525
     20 O         139.4610  139.2228  156.1214 O.3     1  UNL1       -0.4714
     21 O         138.5329  139.6538  168.8965 O.3     1  UNL1       -0.4754
     22 C         139.5489  140.3765  169.7305 C.3     1  UNL1        0.2068
     23 C         140.8969  139.7631  169.9688 C.3     1  UNL1        0.0646
     24 C         142.1367  140.4813  169.5252 C.3     1  UNL1        0.0759
     25 N         142.5702  140.4136  168.0908 N.3     1  UNL1       -0.2726
     26 C         142.8065  139.1615  167.2993 C.3     1  UNL1        0.0721
     27 C         143.2258  139.5600  165.9154 C.3     1  UNL1        0.0188
     28 C         143.2486  141.0585  165.8514 C.3     1  UNL1        0.0188
     29 C         142.8434  141.5860  167.1959 C.3     1  UNL1        0.0721
@<TRIPOS>BOND
     1    19    20    1
     2    20     7    1
     3     7     8   ar
     4     8     9   ar
     5     9    10   ar
     6    10    11   ar
     7    11    12    2
     8    11    13   ar
     9    13     1    1
    10     1     2   ar
    11     2     3   ar
    12     3     4   ar
    13     4    21    1
    14    21    22    1
    15    22    23    1
    16    23    24    1
    17    24    25    1
    18    25    26    1
    19    26    27    1
    20    27    28    1
    21    28    29    1
    22     4     5   ar
    23     5     6   ar
    24    13    14   ar
    25    14    15    1
    26    14    16   ar
    27    16    17   ar
    28    17    18   ar
    29    18     7   ar
    30    17    10   ar
    31     6     1   ar
    32    29    25    1
@<TRIPOS>MOLECULE
*****
 29 32 0 0 0
SMALL
GASTEIGER

@<TRIPOS>ATOM
      1 C         139.4246  142.2336  162.4848 C.ar    1  UNL1        0.0681
      2 C         140.5806  141.4358  163.0114 C.ar    1  UNL1        0.0208
      3 C         140.6190  141.0349  164.4563 C.ar    1  UNL1        0.0384
      4 C         139.5012  141.4318  165.3747 C.ar    1  UNL1        0.1386
      5 C         138.3453  142.2295  164.8481 C.ar    1  UNL1        0.0384
      6 C         138.3070  142.6304  163.4031 C.ar    1  UNL1        0.0208
      7 C         139.9428  145.1025  156.2598 C.ar    1  UNL1        0.1402
      8 C         140.6526  145.9668  157.2594 C.ar    1  UNL1        0.0372
      9 C         140.6909  145.5658  158.7043 C.ar    1  UNL1        0.0094
     10 C         140.0195  144.3007  159.1496 C.ar    1  UNL1        0.0744
     11 C         140.0578  143.8997  160.5946 C.ar    1  UNL1        0.2670
     12 O         140.7676  144.7640  161.5941 O.2     1  UNL1       -0.2665
     13 N         139.3863  142.6345  161.0399 N.ar    1  UNL1       -0.2626
     14 C         138.6764  141.7702  160.0403 C.ar    1  UNL1        0.1268
     15 C         138.0050  140.5050  160.4856 C.3     1  UNL1        0.0723
     16 N         138.6381  142.1711  158.5954 N.ar    1  UNL1       -0.2317
     17 C         139.3097  143.4364  158.1501 C.ar    1  UNL1        0.0902
     18 C         139.2714  143.8373  156.7051 C.ar    1  UNL1        0.0562
     19 C         140.1075  146.9387  154.4292 C.3     1  UNL1        0.2525
     20 O         139.9045  145.5034  154.8149 O.3     1  UNL1       -0.4714
     21 O         139.5396  141.0308  166.8196 O.3     1  UNL1       -0.4754
     22 C         139.1241  139.6478  167.2254 C.3     1  UNL1        0.2068
     23 C         138.0932  138.9090  166.4245 C.3     1  UNL1        0.0646
     24 C         138.4508  137.6173  165.7511 C.3     1  UNL1        0.0759
     25 N         139.3077  137.6254  164.5200 N.3     1  UNL1       -0.2726
     26 C         138.8514  137.9583  163.1304 C.3     1  UNL1        0.0721
     27 C         140.0330  137.8406  162.2138 C.3     1  UNL1        0.0188
     28 C         141.2196  137.4351  163.0370 C.3     1  UNL1        0.0188
     29 C         140.7712  137.3020  164.4623 C.3     1  UNL1        0.0721
@<TRIPOS>BOND
     1    19    20    1
     2    20     7    1
     3     7     8   ar
     4     8     9   ar
     5     9    10   ar
     6    10    11   ar
     7    11    12    2
     8    11    13   ar
     9    13     1    1
    10     1     2   ar
    11     2     3   ar
    12     3     4   ar
    13     4    21    1
    14    21    22    1
    15    22    23    1
    16    23    24    1
    17    24    25    1
    18    25    26    1
    19    26    27    1
    20    27    28    1
    21    28    29    1
    22     4     5   ar
    23     5     6   ar
    24    13    14   ar
    25    14    15    1
    26    14    16   ar
    27    16    17   ar
    28    17    18   ar
    29    18     7   ar
    30    17    10   ar
    31     6     1   ar
    32    29    25    1
@<TRIPOS>MOLECULE
*****
 29 32 0 0 0
SMALL
GASTEIGER

@<TRIPOS>ATOM
      1 C         139.4932  138.9847  163.1745 C.ar    1  UNL1        0.0681
      2 C         139.0213  137.7747  163.9251 C.ar    1  UNL1        0.0208
      3 C         138.7948  137.8518  165.4059 C.ar    1  UNL1        0.0384
      4 C         139.0403  139.1389  166.1361 C.ar    1  UNL1        0.1386
      5 C         139.5122  140.3488  165.3856 C.ar    1  UNL1        0.0384
      6 C         139.7387  140.2717  163.9048 C.ar    1  UNL1        0.0208
      7 C         141.7235  138.2165  156.7181 C.ar    1  UNL1        0.1402
      8 C         142.8214  137.8337  157.6657 C.ar    1  UNL1        0.0372
      9 C         142.5950  137.9107  159.1465 C.ar    1  UNL1        0.0094
     10 C         141.2706  138.3707  159.6797 C.ar    1  UNL1        0.0744
     11 C         141.0441  138.4477  161.1605 C.ar    1  UNL1        0.2670
     12 O         142.1420  138.0649  162.1081 O.2     1  UNL1       -0.2665
     13 N         139.7197  138.9077  161.6937 N.ar    1  UNL1       -0.2626
     14 C         138.6217  139.2905  160.7462 C.ar    1  UNL1        0.1268
     15 C         137.2973  139.7505  161.2794 C.3     1  UNL1        0.0723
     16 N         138.8481  139.2135  159.2654 N.ar    1  UNL1       -0.2317
     17 C         140.1726  138.7535  158.7321 C.ar    1  UNL1        0.0902
     18 C         140.3991  138.6764  157.2513 C.ar    1  UNL1        0.0562
     19 C         142.6609  136.9575  154.6478 C.3     1  UNL1        0.2525
     20 O         141.9500  138.1394  155.2373 O.3     1  UNL1       -0.4714
     21 O         138.8138  139.2160  167.6169 O.3     1  UNL1       -0.4754
     22 C         139.5329  140.2491  168.4329 C.3     1  UNL1        0.2068
     23 C         140.8817  139.9413  169.0127 C.3     1  UNL1        0.0646
     24 C         142.1026  140.6293  168.4782 C.3     1  UNL1        0.0759
     25 N         142.6530  140.2454  167.1366 N.3     1  UNL1       -0.2726
     26 C         142.9207  138.8484  166.6604 C.3     1  UNL1        0.0721
     27 C         143.4654  138.9307  165.2652 C.3     1  UNL1        0.0188
     28 C         143.5344  140.3785  164.8792 C.3     1  UNL1        0.0188
     29 C         143.0323  141.1910  166.0358 C.3     1  UNL1        0.0721
@<TRIPOS>BOND
     1    19    20    1
     2    20     7    1
     3     7     8   ar
     4     8     9   ar
     5     9    10   ar
     6    10    11   ar
     7    11    12    2
     8    11    13   ar
     9    13     1    1
    10     1     2   ar
    11     2     3   ar
    12     3     4   ar
    13     4    21    1
    14    21    22    1
    15    22    23    1
    16    23    24    1
    17    24    25    1
    18    25    26    1
    19    26    27    1
    20    27    28    1
    21    28    29    1
    22     4     5   ar
    23     5     6   ar
    24    13    14   ar
    25    14    15    1
    26    14    16   ar
    27    16    17   ar
    28    17    18   ar
    29    18     7   ar
    30    17    10   ar
    31     6     1   ar
    32    29    25    1
@<TRIPOS>MOLECULE
*****
 29 32 0 0 0
SMALL
GASTEIGER

@<TRIPOS>ATOM
      1 C         139.1729  142.6976  161.9574 C.ar    1  UNL1        0.0681
      2 C         137.7489  142.6273  162.4238 C.ar    1  UNL1        0.0208
      3 C         137.3877  141.7763  163.6050 C.ar    1  UNL1        0.0384
      4 C         138.4504  140.9956  164.3199 C.ar    1  UNL1        0.1386
      5 C         139.8743  141.0658  163.8535 C.ar    1  UNL1        0.0384
      6 C         140.2356  141.9168  162.6723 C.ar    1  UNL1        0.0208
      7 C         140.4706  145.5569  155.8427 C.ar    1  UNL1        0.1402
      8 C         139.9622  144.1613  155.6341 C.ar    1  UNL1        0.0372
      9 C         139.6010  143.3103  156.8153 C.ar    1  UNL1        0.0094
     10 C         139.7482  143.8549  158.2052 C.ar    1  UNL1        0.0744
     11 C         139.3869  143.0039  159.3864 C.ar    1  UNL1        0.2670
     12 O         138.8785  141.6082  159.1778 O.2     1  UNL1       -0.2665
     13 N         139.5341  143.5486  160.7762 N.ar    1  UNL1       -0.2626
     14 C         140.0426  144.9443  160.9848 C.ar    1  UNL1        0.1268
     15 C         140.1898  145.4890  162.3747 C.3     1  UNL1        0.0723
     16 N         140.4038  145.7953  159.8036 N.ar    1  UNL1       -0.2317
     17 C         140.2566  145.2506  158.4137 C.ar    1  UNL1        0.0902
     18 C         140.6178  146.1016  157.2325 C.ar    1  UNL1        0.0562
     19 C         140.1575  147.7320  154.4568 C.3     1  UNL1        0.2525
     20 O         140.8318  146.4079  154.6615 O.3     1  UNL1       -0.4714
     21 O         138.0892  140.1446  165.5011 O.3     1  UNL1       -0.4754
     22 C         139.0033  139.0373  165.9353 C.3     1  UNL1        0.2068
     23 C         138.9503  137.7067  165.2448 C.3     1  UNL1        0.0646
     24 C         140.0419  137.3103  164.2956 C.3     1  UNL1        0.0759
     25 N         139.9854  137.7489  162.8622 N.3     1  UNL1       -0.2726
     26 C         141.1646  138.0038  161.9710 C.3     1  UNL1        0.0721
     27 C         140.6477  138.4220  160.6264 C.3     1  UNL1        0.0188
     28 C         139.1490  138.4256  160.6866 C.3     1  UNL1        0.0188
     29 C         138.7396  138.0095  162.0684 C.3     1  UNL1        0.0721
@<TRIPOS>BOND
     1    19    20    1
     2    20     7    1
     3     7     8   ar
     4     8     9   ar
     5     9    10   ar
     6    10    11   ar
     7    11    12    2
     8    11    13   ar
     9    13     1    1
    10     1     2   ar
    11     2     3   ar
    12     3     4   ar
    13     4    21    1
    14    21    22    1
    15    22    23    1
    16    23    24    1
    17    24    25    1
    18    25    26    1
    19    26    27    1
    20    27    28    1
    21    28    29    1
    22     4     5   ar
    23     5     6   ar
    24    13    14   ar
    25    14    15    1
    26    14    16   ar
    27    16    17   ar
    28    17    18   ar
    29    18     7   ar
    30    17    10   ar
    31     6     1   ar
    32    29    25    1
@<TRIPOS>MOLECULE
*****
 29 32 0 0 0
SMALL
GASTEIGER

@<TRIPOS>ATOM
      1 C         140.1556  143.8548  161.5184 C.ar    1  UNL1        0.0681
      2 C         139.7612  142.7612  160.5703 C.ar    1  UNL1        0.0208
      3 C         139.6777  143.0386  159.0986 C.ar    1  UNL1        0.0384
      4 C         139.9886  144.4094  158.5749 C.ar    1  UNL1        0.1386
      5 C         140.3830  145.5029  159.5229 C.ar    1  UNL1        0.0384
      6 C         140.4665  145.2255  160.9947 C.ar    1  UNL1        0.0208
      7 C         141.7921  142.3197  168.0158 C.ar    1  UNL1        0.1402
      8 C         143.0110  142.1714  167.1543 C.ar    1  UNL1        0.0372
      9 C         142.9275  142.4488  165.6825 C.ar    1  UNL1        0.0094
     10 C         141.6251  142.8744  165.0722 C.ar    1  UNL1        0.0744
     11 C         141.5416  143.1518  163.6004 C.ar    1  UNL1        0.2670
     12 O         142.7605  143.0034  162.7390 O.2     1  UNL1       -0.2665
     13 N         140.2391  143.5774  162.9902 N.ar    1  UNL1       -0.2626
     14 C         139.0201  143.7258  163.8517 C.ar    1  UNL1        0.1268
     15 C         137.7177  144.1514  163.2414 C.3     1  UNL1        0.0723
     16 N         139.1036  143.4484  165.3234 N.ar    1  UNL1       -0.2317
     17 C         140.4062  143.0227  165.9337 C.ar    1  UNL1        0.0902
     18 C         140.4897  142.7454  167.4055 C.ar    1  UNL1        0.0562
     19 C         142.7625  142.8807  170.3596 C.3     1  UNL1        0.2525
     20 O         141.8756  142.0424  169.4875 O.3     1  UNL1       -0.4714
     21 O         139.9051  144.6868  157.1031 O.3     1  UNL1       -0.4754
     22 C         140.6830  145.8234  156.5087 C.3     1  UNL1        0.2068
     23 C         140.0908  146.6367  155.3962 C.3     1  UNL1        0.0646
     24 C         138.8929  147.5016  155.6549 C.3     1  UNL1        0.0759
     25 N         138.9434  148.9670  155.3387 N.3     1  UNL1       -0.2726
     26 C         138.3719  150.0705  156.1787 C.3     1  UNL1        0.0721
     27 C         138.6497  151.3717  155.4861 C.3     1  UNL1        0.0188
     28 C         139.3929  151.0724  154.2180 C.3     1  UNL1        0.0188
     29 C         139.5745  149.5862  154.1269 C.3     1  UNL1        0.0721
@<TRIPOS>BOND
     1    19    20    1
     2    20     7    1
     3     7     8   ar
     4     8     9   ar
     5     9    10   ar
     6    10    11   ar
     7    11    12    2
     8    11    13   ar
     9    13     1    1
    10     1     2   ar
    11     2     3   ar
    12     3     4   ar
    13     4    21    1
    14    21    22    1
    15    22    23    1
    16    23    24    1
    17    24    25    1
    18    25    26    1
    19    26    27    1
    20    27    28    1
    21    28    29    1
    22     4     5   ar
    23     5     6   ar
    24    13    14   ar
    25    14    15    1
    26    14    16   ar
    27    16    17   ar
    28    17    18   ar
    29    18     7   ar
    30    17    10   ar
    31     6     1   ar
    32    29    25    1
@<TRIPOS>MOLECULE
*****
 29 32 0 0 0
SMALL
GASTEIGER

@<TRIPOS>ATOM
      1 C         142.2187  139.2457  161.9258 C.ar    1  UNL1        0.0681
      2 C         142.6756  137.8937  161.4636 C.ar    1  UNL1        0.0208
      3 C         143.0765  137.6862  160.0331 C.ar    1  UNL1        0.0384
      4 C         143.0206  138.8306  159.0650 C.ar    1  UNL1        0.1386
      5 C         142.5638  140.1824  159.5272 C.ar    1  UNL1        0.0384
      6 C         142.1629  140.3900  160.9577 C.ar    1  UNL1        0.0208
      7 C         139.2279  139.7231  168.0965 C.ar    1  UNL1        0.1402
      8 C         138.2418  139.1627  167.1149 C.ar    1  UNL1        0.0372
      9 C         138.6428  138.9551  165.6845 C.ar    1  UNL1        0.0094
     10 C         140.0298  139.3080  165.2356 C.ar    1  UNL1        0.0744
     11 C         140.4308  139.1004  163.8052 C.ar    1  UNL1        0.2670
     12 O         139.4447  138.5400  162.8236 O.2     1  UNL1       -0.2665
     13 N         141.8178  139.4532  163.3563 N.ar    1  UNL1       -0.2626
     14 C         142.8040  140.0137  164.3378 C.ar    1  UNL1        0.1268
     15 C         144.1910  140.3666  163.8890 C.3     1  UNL1        0.0723
     16 N         142.4031  140.2213  165.7683 N.ar    1  UNL1       -0.2317
     17 C         141.0159  139.8684  166.2172 C.ar    1  UNL1        0.0902
     18 C         140.6150  140.0759  167.6476 C.ar    1  UNL1        0.0562
     19 C         139.8757  140.1659  170.5732 C.3     1  UNL1        0.2525
     20 O         138.8270  139.9306  169.5269 O.3     1  UNL1       -0.4714
     21 O         143.4216  138.6230  157.6345 O.3     1  UNL1       -0.4754
     22 C         142.4073  138.1601  156.6309 C.3     1  UNL1        0.2068
     23 C         141.2377  137.3320  157.0739 C.3     1  UNL1        0.0646
     24 C         139.8407  137.8412  156.8770 C.3     1  UNL1        0.0759
     25 N         139.2934  138.9008  157.7869 N.3     1  UNL1       -0.2726
     26 C         139.2479  138.8391  159.2849 C.3     1  UNL1        0.0721
     27 C         138.6219  140.1082  159.7824 C.3     1  UNL1        0.0188
     28 C         138.2805  140.9543  158.5917 C.3     1  UNL1        0.0188
     29 C         138.6955  140.2081  157.3585 C.3     1  UNL1        0.0721
@<TRIPOS>BOND
     1    19    20    1
     2    20     7    1
     3     7     8   ar
     4     8     9   ar
     5     9    10   ar
     6    10    11   ar
     7    11    12    2
     8    11    13   ar
     9    13     1    1
    10     1     2   ar
    11     2     3   ar
    12     3     4   ar
    13     4    21    1
    14    21    22    1
    15    22    23    1
    16    23    24    1
    17    24    25    1
    18    25    26    1
    19    26    27    1
    20    27    28    1
    21    28    29    1
    22     4     5   ar
    23     5     6   ar
    24    13    14   ar
    25    14    15    1
    26    14    16   ar
    27    16    17   ar
    28    17    18   ar
    29    18     7   ar
    30    17    10   ar
    31     6     1   ar
    32    29    25    1
@<TRIPOS>MOLECULE
*****
 29 32 0 0 0
SMALL
GASTEIGER

@<TRIPOS>ATOM
      1 C         138.8309  142.1338  162.0724 C.ar    1  UNL1        0.0681
      2 C         137.7451  142.7040  162.9361 C.ar    1  UNL1        0.0208
      3 C         138.0370  143.0768  164.3594 C.ar    1  UNL1        0.0384
      4 C         139.4147  142.8793  164.9190 C.ar    1  UNL1        0.1386
      5 C         140.5004  142.3092  164.0553 C.ar    1  UNL1        0.0384
      6 C         140.2085  141.9364  162.6320 C.ar    1  UNL1        0.0208
      7 C         137.9405  141.6206  155.2758 C.ar    1  UNL1        0.1402
      8 C         138.5094  142.9710  155.5958 C.ar    1  UNL1        0.0372
      9 C         138.8013  143.3438  157.0192 C.ar    1  UNL1        0.0094
     10 C         138.5242  142.3661  158.1224 C.ar    1  UNL1        0.0744
     11 C         138.8161  142.7388  159.5458 C.ar    1  UNL1        0.2670
     12 O         139.3851  144.0893  159.8658 O.2     1  UNL1       -0.2665
     13 N         138.5390  141.7611  160.6490 N.ar    1  UNL1       -0.2626
     14 C         137.9700  140.4105  160.3290 C.ar    1  UNL1        0.1268
     15 C         137.6930  139.4328  161.4323 C.3     1  UNL1        0.0723
     16 N         137.6782  140.0378  158.9057 N.ar    1  UNL1       -0.2317
     17 C         137.9553  141.0156  157.8024 C.ar    1  UNL1        0.0902
     18 C         137.6634  140.6429  156.3791 C.ar    1  UNL1        0.0562
     19 C         136.2289  141.1574  153.3769 C.3     1  UNL1        0.2525
     20 O         137.6486  141.2478  153.8525 O.3     1  UNL1       -0.4714
     21 O         139.7066  143.2521  166.3424 O.3     1  UNL1       -0.4754
     22 C         140.7905  142.5407  167.0968 C.3     1  UNL1        0.2068
     23 C         140.4414  141.6637  168.2626 C.3     1  UNL1        0.0646
     24 C         140.3429  140.1781  168.0806 C.3     1  UNL1        0.0759
     25 N         139.9367  139.6104  166.7529 N.3     1  UNL1       -0.2726
     26 C         140.8608  139.0416  165.7174 C.3     1  UNL1        0.0721
     27 C         140.0304  138.5915  164.5521 C.3     1  UNL1        0.0188
     28 C         138.5930  138.8822  164.8675 C.3     1  UNL1        0.0188
     29 C         138.5352  139.5119  166.2277 C.3     1  UNL1        0.0721
@<TRIPOS>BOND
     1    19    20    1
     2    20     7    1
     3     7     8   ar
     4     8     9   ar
     5     9    10   ar
     6    10    11   ar
     7    11    12    2
     8    11    13   ar
     9    13     1    1
    10     1     2   ar
    11     2     3   ar
    12     3     4   ar
    13     4    21    1
    14    21    22    1
    15    22    23    1
    16    23    24    1
    17    24    25    1
    18    25    26    1
    19    26    27    1
    20    27    28    1
    21    28    29    1
    22     4     5   ar
    23     5     6   ar
    24    13    14   ar
    25    14    15    1
    26    14    16   ar
    27    16    17   ar
    28    17    18   ar
    29    18     7   ar
    30    17    10   ar
    31     6     1   ar
    32    29    25    1
@<TRIPOS>MOLECULE
*****
 29 32 0 0 0
SMALL
GASTEIGER

@<TRIPOS>ATOM
      1 C         142.1537  143.8470  162.0735 C.ar    1  UNL1        0.0681
      2 C         143.1795  144.5916  162.8757 C.ar    1  UNL1        0.0208
      3 C         143.7196  143.9947  164.1414 C.ar    1  UNL1        0.0384
      4 C         143.2339  142.6532  164.6049 C.ar    1  UNL1        0.1386
      5 C         142.2082  141.9088  163.8027 C.ar    1  UNL1        0.0384
      6 C         141.6681  142.5057  162.5369 C.ar    1  UNL1        0.0208
      7 C         140.6133  145.8821  155.6910 C.ar    1  UNL1        0.1402
      8 C         141.7733  144.9327  155.6371 C.ar    1  UNL1        0.0372
      9 C         142.3134  144.3358  156.9029 C.ar    1  UNL1        0.0094
     10 C         141.6934  144.6883  158.2224 C.ar    1  UNL1        0.0744
     11 C         142.2335  144.0914  159.4882 C.ar    1  UNL1        0.2670
     12 O         143.3935  143.1420  159.4343 O.2     1  UNL1       -0.2665
     13 N         141.6136  144.4439  160.8078 N.ar    1  UNL1       -0.2626
     14 C         140.4535  145.3934  160.8617 C.ar    1  UNL1        0.1268
     15 C         139.8336  145.7459  162.1813 C.3     1  UNL1        0.0723
     16 N         139.9134  145.9903  159.5960 N.ar    1  UNL1       -0.2317
     17 C         140.5334  145.6377  158.2763 C.ar    1  UNL1        0.0902
     18 C         139.9933  146.2346  157.0106 C.ar    1  UNL1        0.0562
     19 C         141.0116  146.8885  153.3292 C.3     1  UNL1        0.2525
     20 O         140.0732  146.4790  154.4253 O.3     1  UNL1       -0.4714
     21 O         143.7740  142.0564  165.8706 O.3     1  UNL1       -0.4754
     22 C         143.2002  142.4624  167.1958 C.3     1  UNL1        0.2068
     23 C         142.0043  141.7442  167.7470 C.3     1  UNL1        0.0646
     24 C         140.6275  142.1099  167.2773 C.3     1  UNL1        0.0759
     25 N         139.6975  141.0440  166.7781 N.3     1  UNL1       -0.2726
     26 C         139.2990  139.8032  167.5206 C.3     1  UNL1        0.0721
     27 C         138.3580  139.0241  166.6501 C.3     1  UNL1        0.0188
     28 C         138.1750  139.7836  165.3696 C.3     1  UNL1        0.0188
     29 C         139.0029  141.0319  165.4487 C.3     1  UNL1        0.0721
@<TRIPOS>BOND
     1    19    20    1
     2    20     7    1
     3     7     8   ar
     4     8     9   ar
     5     9    10   ar
     6    10    11   ar
     7    11    12    2
     8    11    13   ar
     9    13     1    1
    10     1     2   ar
    11     2     3   ar
    12     3     4   ar
    13     4    21    1
    14    21    22    1
    15    22    23    1
    16    23    24    1
    17    24    25    1
    18    25    26    1
    19    26    27    1
    20    27    28    1
    21    28    29    1
    22     4     5   ar
    23     5     6   ar
    24    13    14   ar
    25    14    15    1
    26    14    16   ar
    27    16    17   ar
    28    17    18   ar
    29    18     7   ar
    30    17    10   ar
    31     6     1   ar
    32    29    25    1
