@<TRIPOS>MOLECULE
*****
 37 41 0 0 0
SMALL
GASTEIGER

@<TRIPOS>ATOM
      1 C         145.6643  141.7652  163.8822 C.3     1  UNL1        0.0769
      2 N         142.9946  140.0152  160.7105 N.pl3   1  UNL1       -0.3035
      3 C         143.0775  139.3687  162.0615 C.3     1  UNL1        0.1082
      4 C         143.9674  139.9521  163.1187 C.3     1  UNL1        0.0938
      5 N         144.7744  141.1819  162.8250 N.3     1  UNL1       -0.2695
      6 C         144.6916  141.8283  161.4739 C.3     1  UNL1        0.0938
      7 C         143.8017  141.2450  160.4167 C.3     1  UNL1        0.1082
      8 C         140.3249  138.2651  157.5387 C.ar    1  UNL1        0.0700
      9 C         141.6437  137.6209  157.8483 C.ar    1  UNL1        0.0116
     10 C         142.5336  138.2042  158.9055 C.ar    1  UNL1        0.0167
     11 C         142.1047  139.4318  159.6532 C.ar    1  UNL1        0.0658
     12 C         140.7860  140.0761  159.3437 C.ar    1  UNL1        0.0952
     13 N         140.3571  141.3037  160.0914 N.ar    1  UNL1       -0.2426
     14 C         139.0384  141.9479  159.7818 C.ar    1  UNL1        0.0989
     15 C         138.1485  141.3646  158.7246 C.ar    1  UNL1        0.0207
     16 C         138.5773  140.1370  157.9769 C.ar    1  UNL1        0.0038
     17 C         139.8961  139.4928  158.2864 C.ar    1  UNL1        0.0285
     18 N         138.5451  137.0984  155.4242 N.1     1  UNL1       -0.1908
     19 C         139.4350  137.6818  156.4815 C.1     1  UNL1        0.1005
     20 C         145.1918  142.9293  164.7017 C.3     1  UNL1        0.0437
     21 C         143.7883  143.4353  164.5465 C.ar    1  UNL1       -0.0206
     22 C         143.5169  144.6483  163.7068 C.ar    1  UNL1       -0.0011
     23 C         142.1134  145.1543  163.5516 C.ar    1  UNL1        0.0366
     24 C         140.9813  144.4473  164.2361 C.ar    1  UNL1        0.1385
     25 C         141.2527  143.2344  165.0758 C.ar    1  UNL1        0.0366
     26 C         142.6562  142.7284  165.2310 C.ar    1  UNL1       -0.0011
     27 O         139.5778  144.9533  164.0809 O.3     1  UNL1       -0.4754
     28 C         138.5903  144.1840  163.2544 C.3     1  UNL1        0.2068
     29 C         137.7327  143.1335  163.8955 C.3     1  UNL1        0.0646
     30 C         137.3070  141.9297  163.1084 C.3     1  UNL1        0.0759
     31 N         137.8536  140.5762  163.4537 N.3     1  UNL1       -0.2726
     32 C         137.9693  139.6103  162.3119 C.3     1  UNL1        0.0721
     33 C         138.4722  138.1972  162.3296 C.3     1  UNL1        0.0173
     34 C         138.9835  137.4009  163.4934 C.3     1  UNL1        0.0015
     35 C         139.1182  137.8211  164.9270 C.3     1  UNL1        0.0015
     36 C         138.7749  139.1413  165.5509 C.3     1  UNL1        0.0173
     37 C         138.2121  140.3674  164.8952 C.3     1  UNL1        0.0721
@<TRIPOS>BOND
     1    18    19    3
     2    19     8    1
     3     8     9   ar
     4     9    10   ar
     5    10    11   ar
     6    11     2    1
     7     2     3    1
     8     3     4    1
     9     4     5    1
    10     5     1    1
    11     1    20    1
    12    20    21    1
    13    21    22   ar
    14    22    23   ar
    15    23    24   ar
    16    24    27    1
    17    27    28    1
    18    28    29    1
    19    29    30    1
    20    30    31    1
    21    31    32    1
    22    32    33    1
    23    33    34    1
    24    34    35    1
    25    35    36    1
    26    36    37    1
    27    24    25   ar
    28    25    26   ar
    29     5     6    1
    30     6     7    1
    31    11    12   ar
    32    12    13   ar
    33    13    14   ar
    34    14    15   ar
    35    15    16   ar
    36    16    17   ar
    37    17     8   ar
    38     7     2    1
    39    17    12   ar
    40    26    21   ar
    41    37    31    1
@<TRIPOS>MOLECULE
*****
 37 41 0 0 0
SMALL
GASTEIGER

@<TRIPOS>ATOM
      1 C         139.8524  146.2041  161.8361 C.3     1  UNL1        0.0769
      2 N         140.9792  143.2471  165.0356 N.pl3   1  UNL1       -0.3035
      3 C         139.5430  143.4056  164.6331 C.3     1  UNL1        0.1082
      4 C         139.1674  144.3913  163.5666 C.3     1  UNL1        0.0938
      5 N         140.2280  145.2184  162.9026 N.3     1  UNL1       -0.2695
      6 C         141.6643  145.0600  163.3052 C.3     1  UNL1        0.0938
      7 C         142.0399  144.0743  164.3717 C.3     1  UNL1        0.1082
      8 C         142.1061  140.2902  168.2351 C.ar    1  UNL1        0.0700
      9 C         141.3454  141.5317  168.5955 C.ar    1  UNL1        0.0116
     10 C         140.9698  142.5173  167.5290 C.ar    1  UNL1        0.0167
     11 C         141.3548  142.2615  166.1021 C.ar    1  UNL1        0.0658
     12 C         142.1156  141.0199  165.7416 C.ar    1  UNL1        0.0952
     13 N         142.5007  140.7641  164.3147 N.ar    1  UNL1       -0.2426
     14 C         143.2613  139.5225  163.9542 C.ar    1  UNL1        0.0989
     15 C         143.6370  138.5369  165.0207 C.ar    1  UNL1        0.0207
     16 C         143.2519  138.7928  166.4476 C.ar    1  UNL1        0.0038
     17 C         142.4912  140.0343  166.8081 C.ar    1  UNL1        0.0285
     18 N         142.8573  138.3189  170.3681 N.1     1  UNL1       -0.1908
     19 C         142.4817  139.3045  169.3016 C.1     1  UNL1        0.1005
     20 C         139.9919  145.8333  160.3894 C.3     1  UNL1        0.0437
     21 C         140.3991  144.4409  160.0079 C.ar    1  UNL1       -0.0206
     22 C         141.8230  144.1514  159.6353 C.ar    1  UNL1       -0.0011
     23 C         142.2302  142.7591  159.2538 C.ar    1  UNL1        0.0366
     24 C         141.2135  141.6562  159.2450 C.ar    1  UNL1        0.1385
     25 C         139.7897  141.9457  159.6176 C.ar    1  UNL1        0.0366
     26 C         139.3825  143.3380  159.9991 C.ar    1  UNL1       -0.0011
     27 O         141.6207  140.2638  158.8635 O.3     1  UNL1       -0.4754
     28 C         142.1916  139.3394  159.8978 C.3     1  UNL1        0.2068
     29 C         141.3660  138.2042  160.4266 C.3     1  UNL1        0.0646
     30 C         139.9382  138.4365  160.8236 C.3     1  UNL1        0.0759
     31 N         139.5877  138.6628  162.2644 N.3     1  UNL1       -0.2726
     32 C         138.6740  139.8207  162.5377 C.3     1  UNL1        0.0721
     33 C         138.1442  140.3030  163.8555 C.3     1  UNL1        0.0173
     34 C         138.3971  139.7467  165.2254 C.3     1  UNL1        0.0015
     35 C         139.2423  138.5707  165.6159 C.3     1  UNL1        0.0015
     36 C         140.0434  137.6605  164.7328 C.3     1  UNL1        0.0173
     37 C         140.1971  137.7015  163.2412 C.3     1  UNL1        0.0721
@<TRIPOS>BOND
     1    18    19    3
     2    19     8    1
     3     8     9   ar
     4     9    10   ar
     5    10    11   ar
     6    11     2    1
     7     2     3    1
     8     3     4    1
     9     4     5    1
    10     5     1    1
    11     1    20    1
    12    20    21    1
    13    21    22   ar
    14    22    23   ar
    15    23    24   ar
    16    24    27    1
    17    27    28    1
    18    28    29    1
    19    29    30    1
    20    30    31    1
    21    31    32    1
    22    32    33    1
    23    33    34    1
    24    34    35    1
    25    35    36    1
    26    36    37    1
    27    24    25   ar
    28    25    26   ar
    29     5     6    1
    30     6     7    1
    31    11    12   ar
    32    12    13   ar
    33    13    14   ar
    34    14    15   ar
    35    15    16   ar
    36    16    17   ar
    37    17     8   ar
    38     7     2    1
    39    17    12   ar
    40    26    21   ar
    41    37    31    1
@<TRIPOS>MOLECULE
*****
 37 41 0 0 0
SMALL
GASTEIGER

@<TRIPOS>ATOM
      1 C         138.7969  138.0267  160.9745 C.3     1  UNL1        0.0769
      2 N         139.5349  139.5155  165.1565 N.pl3   1  UNL1       -0.3035
      3 C         140.2646  138.3063  164.6512 C.3     1  UNL1        0.1082
      4 C         140.0186  137.8100  163.2572 C.3     1  UNL1        0.0938
      5 N         139.0429  138.5229  162.3685 N.3     1  UNL1       -0.2695
      6 C         138.3132  139.7322  162.8738 C.3     1  UNL1        0.0938
      7 C         138.5592  140.2285  164.2678 C.3     1  UNL1        0.1082
      8 C         140.2730  141.0043  169.3384 C.ar    1  UNL1        0.0700
      9 C         139.0539  140.1834  169.0388 C.ar    1  UNL1        0.0116
     10 C         138.8079  139.6871  167.6448 C.ar    1  UNL1        0.0167
     11 C         139.7810  140.0117  166.5505 C.ar    1  UNL1        0.0658
     12 C         141.0002  140.8327  166.8501 C.ar    1  UNL1        0.0952
     13 N         141.9733  141.1573  165.7557 N.ar    1  UNL1       -0.2426
     14 C         143.1924  141.9782  166.0554 C.ar    1  UNL1        0.0989
     15 C         143.4384  142.4745  167.4494 C.ar    1  UNL1        0.0207
     16 C         142.4653  142.1498  168.5437 C.ar    1  UNL1        0.0038
     17 C         141.2462  141.3289  168.2441 C.ar    1  UNL1        0.0285
     18 N         140.7650  141.9968  172.1264 N.1     1  UNL1       -0.1908
     19 C         140.5190  141.5005  170.7324 C.1     1  UNL1        0.1005
     20 C         139.7543  138.3763  159.8741 C.3     1  UNL1        0.0437
     21 C         140.6537  139.5687  160.0131 C.ar    1  UNL1       -0.0206
     22 C         140.1085  140.9490  159.7945 C.ar    1  UNL1       -0.0011
     23 C         141.0080  142.1413  159.9335 C.ar    1  UNL1        0.0366
     24 C         142.4526  141.9534  160.2912 C.ar    1  UNL1        0.1385
     25 C         142.9977  140.5732  160.5098 C.ar    1  UNL1        0.0366
     26 C         142.0982  139.3808  160.3708 C.ar    1  UNL1       -0.0011
     27 O         143.3520  143.1457  160.4303 O.3     1  UNL1       -0.4754
     28 C         144.1529  143.3389  161.6838 C.3     1  UNL1        0.2068
     29 C         143.4865  143.8434  162.9293 C.3     1  UNL1        0.0646
     30 C         142.4515  144.9254  162.8405 C.3     1  UNL1        0.0759
     31 N         141.0319  144.6394  163.2315 N.3     1  UNL1       -0.2726
     32 C         140.0179  144.7566  162.1323 C.3     1  UNL1        0.0721
     33 C         138.5356  144.5373  162.2003 C.3     1  UNL1        0.0173
     34 C         137.7011  144.1466  163.3839 C.3     1  UNL1        0.0015
     35 C         138.1429  143.8788  164.7922 C.3     1  UNL1        0.0015
     36 C         139.5283  143.9355  165.3644 C.3     1  UNL1        0.0173
     37 C         140.8140  144.2740  164.6699 C.3     1  UNL1        0.0721
@<TRIPOS>BOND
     1    18    19    3
     2    19     8    1
     3     8     9   ar
     4     9    10   ar
     5    10    11   ar
     6    11     2    1
     7     2     3    1
     8     3     4    1
     9     4     5    1
    10     5     1    1
    11     1    20    1
    12    20    21    1
    13    21    22   ar
    14    22    23   ar
    15    23    24   ar
    16    24    27    1
    17    27    28    1
    18    28    29    1
    19    29    30    1
    20    30    31    1
    21    31    32    1
    22    32    33    1
    23    33    34    1
    24    34    35    1
    25    35    36    1
    26    36    37    1
    27    24    25   ar
    28    25    26   ar
    29     5     6    1
    30     6     7    1
    31    11    12   ar
    32    12    13   ar
    33    13    14   ar
    34    14    15   ar
    35    15    16   ar
    36    16    17   ar
    37    17     8   ar
    38     7     2    1
    39    17    12   ar
    40    26    21   ar
    41    37    31    1
@<TRIPOS>MOLECULE
*****
 37 41 0 0 0
SMALL
GASTEIGER

@<TRIPOS>ATOM
      1 C         144.1017  139.0332  160.4709 C.3     1  UNL1        0.0769
      2 N         142.8850  139.7668  164.7407 N.pl3   1  UNL1       -0.3035
      3 C         144.0676  140.4868  164.1636 C.3     1  UNL1        0.1082
      4 C         144.4731  140.2422  162.7403 C.3     1  UNL1        0.0938
      5 N         143.6962  139.2778  161.8941 N.3     1  UNL1       -0.2695
      6 C         142.5135  138.5577  162.4713 C.3     1  UNL1        0.0938
      7 C         142.1080  138.8022  163.8945 C.3     1  UNL1        0.1082
      8 C         141.6683  140.5003  169.0105 C.ar    1  UNL1        0.0700
      9 C         142.5376  139.3265  168.6695 C.ar    1  UNL1        0.0116
     10 C         142.9432  139.0820  167.2462 C.ar    1  UNL1        0.0167
     11 C         142.4794  140.0113  166.1640 C.ar    1  UNL1        0.0658
     12 C         141.6100  141.1852  166.5050 C.ar    1  UNL1        0.0952
     13 N         141.1463  142.1145  165.4227 N.ar    1  UNL1       -0.2426
     14 C         140.2770  143.2883  165.7638 C.ar    1  UNL1        0.0989
     15 C         139.8714  143.5328  167.1871 C.ar    1  UNL1        0.0207
     16 C         140.3351  142.6035  168.2693 C.ar    1  UNL1        0.0038
     17 C         141.2045  141.4297  167.9283 C.ar    1  UNL1        0.0285
     18 N         140.8571  140.9893  171.8571 N.1     1  UNL1       -0.1908
     19 C         141.2627  140.7448  170.4338 C.1     1  UNL1        0.1005
     20 C         143.6354  139.9608  159.3882 C.3     1  UNL1        0.0437
     21 C         142.4169  140.8093  159.6009 C.ar    1  UNL1       -0.0206
     22 C         142.5646  142.2430  160.0164 C.ar    1  UNL1       -0.0011
     23 C         141.3460  143.0915  160.2291 C.ar    1  UNL1        0.0366
     24 C         139.9798  142.5063  160.0262 C.ar    1  UNL1        0.1385
     25 C         139.8322  141.0726  159.6106 C.ar    1  UNL1        0.0366
     26 C         141.0508  140.2241  159.3980 C.ar    1  UNL1       -0.0011
     27 O         138.7613  143.3548  160.2388 O.3     1  UNL1       -0.4754
     28 C         138.2652  143.6197  161.6295 C.3     1  UNL1        0.2068
     29 C         138.6287  142.6862  162.7459 C.3     1  UNL1        0.0646
     30 C         137.6054  141.7347  163.2912 C.3     1  UNL1        0.0759
     31 N         138.0171  140.3601  163.7282 N.3     1  UNL1       -0.2726
     32 C         138.1696  140.1659  165.2077 C.3     1  UNL1        0.0721
     33 C         138.5645  138.9251  165.9523 C.3     1  UNL1        0.0173
     34 C         138.9045  137.5720  165.4013 C.3     1  UNL1        0.0015
     35 C         138.9335  137.1255  163.9696 C.3     1  UNL1        0.0015
     36 C         138.6297  137.9219  162.7353 C.3     1  UNL1        0.0173
     37 C         138.2218  139.3614  162.6279 C.3     1  UNL1        0.0721
@<TRIPOS>BOND
     1    18    19    3
     2    19     8    1
     3     8     9   ar
     4     9    10   ar
     5    10    11   ar
     6    11     2    1
     7     2     3    1
     8     3     4    1
     9     4     5    1
    10     5     1    1
    11     1    20    1
    12    20    21    1
    13    21    22   ar
    14    22    23   ar
    15    23    24   ar
    16    24    27    1
    17    27    28    1
    18    28    29    1
    19    29    30    1
    20    30    31    1
    21    31    32    1
    22    32    33    1
    23    33    34    1
    24    34    35    1
    25    35    36    1
    26    36    37    1
    27    24    25   ar
    28    25    26   ar
    29     5     6    1
    30     6     7    1
    31    11    12   ar
    32    12    13   ar
    33    13    14   ar
    34    14    15   ar
    35    15    16   ar
    36    16    17   ar
    37    17     8   ar
    38     7     2    1
    39    17    12   ar
    40    26    21   ar
    41    37    31    1
@<TRIPOS>MOLECULE
*****
 37 41 0 0 0
SMALL
GASTEIGER

@<TRIPOS>ATOM
      1 C         144.5249  141.7145  160.6037 C.3     1  UNL1        0.0769
      2 N         143.0903  141.7350  164.8688 N.pl3   1  UNL1       -0.3035
      3 C         142.5176  142.7069  163.8802 C.3     1  UNL1        0.1082
      4 C         142.9958  142.7000  162.4585 C.3     1  UNL1        0.0938
      5 N         144.0467  141.7213  162.0254 N.3     1  UNL1       -0.2695
      6 C         144.6196  140.7494  163.0140 C.3     1  UNL1        0.0938
      7 C         144.1414  140.7563  164.4358 C.3     1  UNL1        0.1082
      8 C         141.6557  141.7555  169.1340 C.ar    1  UNL1        0.0700
      9 C         142.8978  142.5072  168.7569 C.ar    1  UNL1        0.0116
     10 C         143.3760  142.5003  167.3351 C.ar    1  UNL1        0.0167
     11 C         142.6121  141.7419  166.2906 C.ar    1  UNL1        0.0658
     12 C         141.3700  140.9902  166.6677 C.ar    1  UNL1        0.0952
     13 N         140.6061  140.2317  165.6231 N.ar    1  UNL1       -0.2426
     14 C         139.3640  139.4801  166.0002 C.ar    1  UNL1        0.0989
     15 C         138.8858  139.4870  167.4220 C.ar    1  UNL1        0.0207
     16 C         139.6497  140.2454  168.4665 C.ar    1  UNL1        0.0038
     17 C         140.8918  140.9970  168.0894 C.ar    1  UNL1        0.0285
     18 N         140.6994  141.7692  171.9774 N.1     1  UNL1       -0.1908
     19 C         141.1776  141.7624  170.5557 C.1     1  UNL1        0.1005
     20 C         143.6014  141.2818  159.5038 C.3     1  UNL1        0.0437
     21 C         142.3922  140.4533  159.8223 C.ar    1  UNL1       -0.0206
     22 C         142.5462  139.1495  160.5481 C.ar    1  UNL1       -0.0011
     23 C         141.3370  138.3211  160.8665 C.ar    1  UNL1        0.0366
     24 C         139.9738  138.7963  160.4593 C.ar    1  UNL1        0.1385
     25 C         139.8198  140.1000  159.7336 C.ar    1  UNL1        0.0366
     26 C         141.0290  140.9285  159.4151 C.ar    1  UNL1       -0.0011
     27 O         138.7646  137.9678  160.7778 O.3     1  UNL1       -0.4754
     28 C         137.7869  138.4355  161.8148 C.3     1  UNL1        0.2068
     29 C         138.1271  139.6021  162.6943 C.3     1  UNL1        0.0646
     30 C         137.4471  140.9226  162.4850 C.3     1  UNL1        0.0759
     31 N         138.1424  142.1940  162.8725 N.3     1  UNL1       -0.2726
     32 C         138.7624  142.9661  161.7457 C.3     1  UNL1        0.0721
     33 C         139.5188  144.2601  161.8038 C.3     1  UNL1        0.0173
     34 C         139.8422  145.1016  163.0027 C.3     1  UNL1        0.0015
     35 C         139.4890  144.8568  164.4398 C.3     1  UNL1        0.0015
     36 C         138.7251  143.7101  165.0329 C.3     1  UNL1        0.0173
     37 C         138.1258  142.5251  164.3353 C.3     1  UNL1        0.0721
@<TRIPOS>BOND
     1    18    19    3
     2    19     8    1
     3     8     9   ar
     4     9    10   ar
     5    10    11   ar
     6    11     2    1
     7     2     3    1
     8     3     4    1
     9     4     5    1
    10     5     1    1
    11     1    20    1
    12    20    21    1
    13    21    22   ar
    14    22    23   ar
    15    23    24   ar
    16    24    27    1
    17    27    28    1
    18    28    29    1
    19    29    30    1
    20    30    31    1
    21    31    32    1
    22    32    33    1
    23    33    34    1
    24    34    35    1
    25    35    36    1
    26    36    37    1
    27    24    25   ar
    28    25    26   ar
    29     5     6    1
    30     6     7    1
    31    11    12   ar
    32    12    13   ar
    33    13    14   ar
    34    14    15   ar
    35    15    16   ar
    36    16    17   ar
    37    17     8   ar
    38     7     2    1
    39    17    12   ar
    40    26    21   ar
    41    37    31    1
@<TRIPOS>MOLECULE
*****
 37 41 0 0 0
SMALL
GASTEIGER

@<TRIPOS>ATOM
      1 C         141.9457  138.1268  159.0005 C.3     1  UNL1        0.0769
      2 N         140.7587  139.0512  163.2415 N.pl3   1  UNL1       -0.3035
      3 C         141.8711  138.0829  162.9681 C.3     1  UNL1        0.1082
      4 C         142.2668  137.7747  161.5544 C.3     1  UNL1        0.0938
      5 N         141.5500  138.4349  160.4141 N.3     1  UNL1       -0.2695
      6 C         140.4375  139.4033  160.6875 C.3     1  UNL1        0.0938
      7 C         140.0419  139.7115  162.1012 C.3     1  UNL1        0.1082
      8 C         139.5718  139.9756  167.4826 C.ar    1  UNL1        0.0700
      9 C         138.7377  139.0416  166.6570 C.ar    1  UNL1        0.0116
     10 C         139.1333  138.7334  165.2433 C.ar    1  UNL1        0.0167
     11 C         140.3631  139.3593  164.6552 C.ar    1  UNL1        0.0658
     12 C         141.1973  140.2935  165.4808 C.ar    1  UNL1        0.0952
     13 N         142.4270  140.9194  164.8928 N.ar    1  UNL1       -0.2426
     14 C         143.2611  141.8535  165.7184 C.ar    1  UNL1        0.0989
     15 C         142.8655  142.1616  167.1321 C.ar    1  UNL1        0.0207
     16 C         141.6357  141.5357  167.7202 C.ar    1  UNL1        0.0038
     17 C         140.8016  140.6016  166.8945 C.ar    1  UNL1        0.0285
     18 N         138.7805  140.5919  170.3100 N.1     1  UNL1       -0.1908
     19 C         139.1762  140.2838  168.8963 C.1     1  UNL1        0.1005
     20 C         142.9886  138.9590  158.3152 C.3     1  UNL1        0.0437
     21 C         142.8874  140.4554  158.3366 C.ar    1  UNL1       -0.0206
     22 C         143.7646  141.2533  159.2553 C.ar    1  UNL1       -0.0011
     23 C         143.6634  142.7497  159.2768 C.ar    1  UNL1        0.0366
     24 C         142.6849  143.4482  158.3796 C.ar    1  UNL1        0.1385
     25 C         141.8077  142.6503  157.4611 C.ar    1  UNL1        0.0366
     26 C         141.9090  141.1539  157.4396 C.ar    1  UNL1       -0.0011
     27 O         142.5837  144.9447  158.4011 O.3     1  UNL1       -0.4754
     28 C         141.3230  145.6043  158.8760 C.3     1  UNL1        0.2068
     29 C         140.7915  145.3072  160.2469 C.3     1  UNL1        0.0646
     30 C         139.8541  144.1548  160.4543 C.3     1  UNL1        0.0759
     31 N         139.4414  143.7641  161.8425 N.3     1  UNL1       -0.2726
     32 C         138.2160  142.9045  161.9396 C.3     1  UNL1        0.0721
     33 C         137.5553  142.3533  163.1682 C.3     1  UNL1        0.0173
     34 C         137.9567  142.5254  164.6032 C.3     1  UNL1        0.0015
     35 C         139.1181  143.2914  165.1640 C.3     1  UNL1        0.0015
     36 C         140.1649  144.0743  164.4283 C.3     1  UNL1        0.0173
     37 C         140.3087  144.2847  162.9501 C.3     1  UNL1        0.0721
@<TRIPOS>BOND
     1    18    19    3
     2    19     8    1
     3     8     9   ar
     4     9    10   ar
     5    10    11   ar
     6    11     2    1
     7     2     3    1
     8     3     4    1
     9     4     5    1
    10     5     1    1
    11     1    20    1
    12    20    21    1
    13    21    22   ar
    14    22    23   ar
    15    23    24   ar
    16    24    27    1
    17    27    28    1
    18    28    29    1
    19    29    30    1
    20    30    31    1
    21    31    32    1
    22    32    33    1
    23    33    34    1
    24    34    35    1
    25    35    36    1
    26    36    37    1
    27    24    25   ar
    28    25    26   ar
    29     5     6    1
    30     6     7    1
    31    11    12   ar
    32    12    13   ar
    33    13    14   ar
    34    14    15   ar
    35    15    16   ar
    36    16    17   ar
    37    17     8   ar
    38     7     2    1
    39    17    12   ar
    40    26    21   ar
    41    37    31    1
@<TRIPOS>MOLECULE
*****
 37 41 0 0 0
SMALL
GASTEIGER

@<TRIPOS>ATOM
      1 C         141.3854  145.2010  159.7673 C.3     1  UNL1        0.0769
      2 N         141.1330  143.0654  163.7202 N.pl3   1  UNL1       -0.3035
      3 C         142.4108  143.7353  163.3099 C.3     1  UNL1        0.1082
      4 C         142.4949  144.4471  161.9923 C.3     1  UNL1        0.0938
      5 N         141.3012  144.4892  161.0850 N.3     1  UNL1       -0.2695
      6 C         140.0233  143.8193  161.4953 C.3     1  UNL1        0.0938
      7 C         139.9392  143.1074  162.8129 C.3     1  UNL1        0.1082
      8 C         140.8806  140.9298  167.6731 C.ar    1  UNL1        0.0700
      9 C         140.0950  142.1877  167.4488 C.ar    1  UNL1        0.0116
     10 C         140.1791  142.8996  166.1312 C.ar    1  UNL1        0.0167
     11 C         141.0488  142.3535  165.0379 C.ar    1  UNL1        0.0658
     12 C         141.8345  141.0955  165.2622 C.ar    1  UNL1        0.0952
     13 N         142.7043  140.5495  164.1689 N.ar    1  UNL1       -0.2426
     14 C         143.4899  139.2916  164.3933 C.ar    1  UNL1        0.0989
     15 C         143.4057  138.5797  165.7109 C.ar    1  UNL1        0.0207
     16 C         142.5360  139.1257  166.8042 C.ar    1  UNL1        0.0038
     17 C         141.7504  140.3837  166.5798 C.ar    1  UNL1        0.0285
     18 N         140.7123  139.5060  170.3084 N.1     1  UNL1       -0.1908
     19 C         140.7964  140.2179  168.9908 C.1     1  UNL1        0.1005
     20 C         141.9374  144.4925  158.5660 C.3     1  UNL1        0.0437
     21 C         142.1604  143.0097  158.6065 C.ar    1  UNL1       -0.0206
     22 C         141.0493  142.0738  158.2327 C.ar    1  UNL1       -0.0011
     23 C         141.2723  140.5910  158.2732 C.ar    1  UNL1        0.0366
     24 C         142.6063  140.0442  158.6875 C.ar    1  UNL1        0.1385
     25 C         143.7172  140.9801  159.0612 C.ar    1  UNL1        0.0366
     26 C         143.4942  142.4629  159.0207 C.ar    1  UNL1       -0.0011
     27 O         142.8293  138.5614  158.7279 O.3     1  UNL1       -0.4754
     28 C         142.6582  137.8121  160.0162 C.3     1  UNL1        0.2068
     29 C         141.9880  138.4724  161.1845 C.3     1  UNL1        0.0646
     30 C         140.4939  138.4351  161.3113 C.3     1  UNL1        0.0759
     31 N         139.8507  138.6085  162.6553 N.3     1  UNL1       -0.2726
     32 C         140.1901  137.5655  163.6786 C.3     1  UNL1        0.0721
     33 C         139.7158  137.4585  165.0976 C.3     1  UNL1        0.0173
     34 C         138.7850  138.3678  165.8438 C.3     1  UNL1        0.0015
     35 C         138.0987  139.6089  165.3553 C.3     1  UNL1        0.0015
     36 C         138.1736  140.2471  163.9999 C.3     1  UNL1        0.0173
     37 C         138.9533  139.8018  162.7983 C.3     1  UNL1        0.0721
@<TRIPOS>BOND
     1    18    19    3
     2    19     8    1
     3     8     9   ar
     4     9    10   ar
     5    10    11   ar
     6    11     2    1
     7     2     3    1
     8     3     4    1
     9     4     5    1
    10     5     1    1
    11     1    20    1
    12    20    21    1
    13    21    22   ar
    14    22    23   ar
    15    23    24   ar
    16    24    27    1
    17    27    28    1
    18    28    29    1
    19    29    30    1
    20    30    31    1
    21    31    32    1
    22    32    33    1
    23    33    34    1
    24    34    35    1
    25    35    36    1
    26    36    37    1
    27    24    25   ar
    28    25    26   ar
    29     5     6    1
    30     6     7    1
    31    11    12   ar
    32    12    13   ar
    33    13    14   ar
    34    14    15   ar
    35    15    16   ar
    36    16    17   ar
    37    17     8   ar
    38     7     2    1
    39    17    12   ar
    40    26    21   ar
    41    37    31    1
@<TRIPOS>MOLECULE
*****
 37 41 0 0 0
SMALL
GASTEIGER

@<TRIPOS>ATOM
      1 C         141.1439  145.1476  160.5872 C.3     1  UNL1        0.0769
      2 N         140.5406  143.0611  164.5283 N.pl3   1  UNL1       -0.3035
      3 C         141.7531  142.7601  163.6982 C.3     1  UNL1        0.1082
      4 C         141.9542  143.4556  162.3845 C.3     1  UNL1        0.0938
      5 N         140.9428  144.4521  161.9009 N.3     1  UNL1       -0.2695
      6 C         139.7302  144.7531  162.7310 C.3     1  UNL1        0.0938
      7 C         139.5291  144.0576  164.0447 C.3     1  UNL1        0.1082
      8 C         139.9372  140.9745  168.4694 C.ar    1  UNL1        0.0700
      9 C         140.6657  142.2846  168.4182 C.ar    1  UNL1        0.0116
     10 C         140.8669  142.9802  167.1045 C.ar    1  UNL1        0.0167
     11 C         140.3395  142.3655  165.8420 C.ar    1  UNL1        0.0658
     12 C         139.6109  141.0553  165.8931 C.ar    1  UNL1        0.0952
     13 N         139.0835  140.4406  164.6306 N.ar    1  UNL1       -0.2426
     14 C         138.3550  139.1304  164.6818 C.ar    1  UNL1        0.0989
     15 C         138.1539  138.4349  165.9955 C.ar    1  UNL1        0.0207
     16 C         138.6813  139.0496  167.2580 C.ar    1  UNL1        0.0038
     17 C         139.4098  140.3597  167.2068 C.ar    1  UNL1        0.0285
     18 N         139.5350  139.5834  171.0968 N.1     1  UNL1       -0.1908
     19 C         139.7361  140.2789  169.7831 C.1     1  UNL1        0.1005
     20 C         140.5429  144.5773  159.3369 C.3     1  UNL1        0.0437
     21 C         140.7581  143.1333  158.9924 C.ar    1  UNL1       -0.0206
     22 C         141.9403  142.7283  158.1627 C.ar    1  UNL1       -0.0011
     23 C         142.1554  141.2843  157.8183 C.ar    1  UNL1        0.0366
     24 C         141.1883  140.2453  158.3035 C.ar    1  UNL1        0.1385
     25 C         140.0062  140.6504  159.1332 C.ar    1  UNL1        0.0366
     26 C         139.7910  142.0944  159.4776 C.ar    1  UNL1       -0.0011
     27 O         141.4035  138.8014  157.9591 O.3     1  UNL1       -0.4754
     28 C         142.6534  138.1021  158.4050 C.3     1  UNL1        0.2068
     29 C         143.1034  138.2078  159.8321 C.3     1  UNL1        0.0646
     30 C         142.1368  137.9326  160.9456 C.3     1  UNL1        0.0759
     31 N         142.5295  138.2125  162.3659 N.3     1  UNL1       -0.2726
     32 C         141.5904  137.6950  163.4149 C.3     1  UNL1        0.0721
     33 C         141.6993  137.8102  164.9065 C.3     1  UNL1        0.0173
     34 C         142.7741  138.4713  165.7176 C.3     1  UNL1        0.0015
     35 C         144.0055  139.1805  165.2373 C.3     1  UNL1        0.0015
     36 C         144.4662  139.4038  163.8274 C.3     1  UNL1        0.0173
     37 C         143.8093  138.9730  162.5495 C.3     1  UNL1        0.0721
@<TRIPOS>BOND
     1    18    19    3
     2    19     8    1
     3     8     9   ar
     4     9    10   ar
     5    10    11   ar
     6    11     2    1
     7     2     3    1
     8     3     4    1
     9     4     5    1
    10     5     1    1
    11     1    20    1
    12    20    21    1
    13    21    22   ar
    14    22    23   ar
    15    23    24   ar
    16    24    27    1
    17    27    28    1
    18    28    29    1
    19    29    30    1
    20    30    31    1
    21    31    32    1
    22    32    33    1
    23    33    34    1
    24    34    35    1
    25    35    36    1
    26    36    37    1
    27    24    25   ar
    28    25    26   ar
    29     5     6    1
    30     6     7    1
    31    11    12   ar
    32    12    13   ar
    33    13    14   ar
    34    14    15   ar
    35    15    16   ar
    36    16    17   ar
    37    17     8   ar
    38     7     2    1
    39    17    12   ar
    40    26    21   ar
    41    37    31    1
@<TRIPOS>MOLECULE
*****
 37 41 0 0 0
SMALL
GASTEIGER

@<TRIPOS>ATOM
      1 C         141.1042  145.4667  159.4800 C.3     1  UNL1        0.0769
      2 N         141.4132  143.1875  163.3478 N.pl3   1  UNL1       -0.3035
      3 C         140.4248  144.3078  163.2143 C.3     1  UNL1        0.1082
      4 C         140.3218  145.0676  161.9251 C.3     1  UNL1        0.0938
      5 N         141.2072  144.7069  160.7692 N.3     1  UNL1       -0.2695
      6 C         142.1957  143.5866  160.9026 C.3     1  UNL1        0.0938
      7 C         142.2987  142.8268  162.1919 C.3     1  UNL1        0.1082
      8 C         141.7222  140.9083  167.2155 C.ar    1  UNL1        0.0700
      9 C         142.8013  141.8746  166.8262 C.ar    1  UNL1        0.0116
     10 C         142.6983  142.6343  165.5369 C.ar    1  UNL1        0.0167
     11 C         141.5162  142.4277  164.6370 C.ar    1  UNL1        0.0658
     12 C         140.4370  141.4614  165.0264 C.ar    1  UNL1        0.0952
     13 N         139.2549  141.2548  164.1265 N.ar    1  UNL1       -0.2426
     14 C         138.1758  140.2884  164.5158 C.ar    1  UNL1        0.0989
     15 C         138.2788  139.5287  165.8051 C.ar    1  UNL1        0.0207
     16 C         139.4609  139.7353  166.7050 C.ar    1  UNL1        0.0038
     17 C         140.5400  140.7016  166.3156 C.ar    1  UNL1        0.0285
     18 N         141.9282  139.3888  169.7941 N.1     1  UNL1       -0.1908
     19 C         141.8252  140.1485  168.5048 C.1     1  UNL1        0.1005
     20 C         140.1230  145.0345  158.4311 C.3     1  UNL1        0.0437
     21 C         139.8199  143.5776  158.2424 C.ar    1  UNL1       -0.0206
     22 C         140.6231  142.7640  157.2713 C.ar    1  UNL1       -0.0011
     23 C         140.3201  141.3071  157.0827 C.ar    1  UNL1        0.0366
     24 C         139.2137  140.6638  157.8651 C.ar    1  UNL1        0.1385
     25 C         138.4105  141.4773  158.8361 C.ar    1  UNL1        0.0366
     26 C         138.7136  142.9342  159.0248 C.ar    1  UNL1       -0.0011
     27 O         138.9106  139.2069  157.6764 O.3     1  UNL1       -0.4754
     28 C         139.8980  138.1710  158.1262 C.3     1  UNL1        0.2068
     29 C         140.6975  138.3899  159.3764 C.3     1  UNL1        0.0646
     30 C         140.0165  138.3840  160.7128 C.3     1  UNL1        0.0759
     31 N         140.8330  138.3416  161.9704 N.3     1  UNL1       -0.2726
     32 C         142.0645  139.1979  161.9760 C.3     1  UNL1        0.0721
     33 C         143.0771  139.3726  163.0687 C.3     1  UNL1        0.0173
     34 C         143.1084  138.7342  164.4257 C.3     1  UNL1        0.0015
     35 C         142.1347  137.7634  165.0252 C.3     1  UNL1        0.0015
     36 C         140.8892  137.1912  164.4156 C.3     1  UNL1        0.0173
     37 C         140.3099  137.4486  163.0562 C.3     1  UNL1        0.0721
@<TRIPOS>BOND
     1    18    19    3
     2    19     8    1
     3     8     9   ar
     4     9    10   ar
     5    10    11   ar
     6    11     2    1
     7     2     3    1
     8     3     4    1
     9     4     5    1
    10     5     1    1
    11     1    20    1
    12    20    21    1
    13    21    22   ar
    14    22    23   ar
    15    23    24   ar
    16    24    27    1
    17    27    28    1
    18    28    29    1
    19    29    30    1
    20    30    31    1
    21    31    32    1
    22    32    33    1
    23    33    34    1
    24    34    35    1
    25    35    36    1
    26    36    37    1
    27    24    25   ar
    28    25    26   ar
    29     5     6    1
    30     6     7    1
    31    11    12   ar
    32    12    13   ar
    33    13    14   ar
    34    14    15   ar
    35    15    16   ar
    36    16    17   ar
    37    17     8   ar
    38     7     2    1
    39    17    12   ar
    40    26    21   ar
    41    37    31    1
