@<TRIPOS>MOLECULE
*****
 29 32 0 0 0
SMALL
GASTEIGER

@<TRIPOS>ATOM
      1 N         139.5636  140.3676  166.3753 N.ar    1  UNL1       -0.2143
      2 N         140.5490  141.0731  165.4915 N.ar    1  UNL1       -0.1708
      3 C         141.7547  141.7342  166.0906 C.ar    1  UNL1        0.0846
      4 C         141.9750  141.6900  167.5738 C.ar    1  UNL1        0.0380
      5 C         143.1808  142.3511  168.1729 C.ar    1  UNL1        0.0045
      6 C         143.4010  142.3068  169.6560 C.ar    1  UNL1        0.0207
      7 C         142.4156  141.6013  170.5399 C.ar    1  UNL1        0.0990
      8 N         141.2099  140.9402  169.9407 N.ar    1  UNL1       -0.2389
      9 C         140.9896  140.9845  168.4576 C.ar    1  UNL1        0.1398
     10 C         139.7838  140.3233  167.8584 C.ar    1  UNL1        0.2941
     11 O         138.7984  139.6178  168.7422 O.2     1  UNL1       -0.2638
     12 C         138.3578  139.7064  165.7761 C.3     1  UNL1        0.1466
     13 N         137.9331  140.0366  163.1578 N.3     1  UNL1       -0.2700
     14 C         138.1403  139.1929  161.9350 C.3     1  UNL1        0.0722
     15 C         138.7220  137.8806  162.3703 C.3     1  UNL1        0.0188
     16 C         138.8742  137.9132  163.8622 C.3     1  UNL1        0.0194
     17 C         138.3867  139.2457  164.3489 C.3     1  UNL1        0.0822
     18 C         137.3710  141.4270  163.1847 C.3     1  UNL1        0.1046
     19 C         138.2389  142.5942  162.8181 C.3     1  UNL1        0.1595
     20 C         138.4380  142.4700  160.2307 C.3     1  UNL1        0.1742
     21 O         138.0974  143.2404  161.4719 O.3     1  UNL1       -0.3496
     22 C         142.7401  142.4397  165.2068 C.3     1  UNL1        0.0739
     23 C         142.2611  143.1948  164.0025 C.ar    1  UNL1       -0.0161
     24 C         141.5543  144.5069  164.1722 C.ar    1  UNL1       -0.0030
     25 C         141.0752  145.2620  162.9679 C.ar    1  UNL1        0.0111
     26 C         141.3029  144.7050  161.5939 C.ar    1  UNL1        0.0577
     27 CL        140.8238  145.4600  160.3896 Cl      1  UNL1       -0.0822
     28 C         142.0097  143.3929  161.4242 C.ar    1  UNL1        0.0111
     29 C         142.4888  142.6377  162.6285 C.ar    1  UNL1       -0.0030
@<TRIPOS>BOND
     1    20    21    1
     2    21    19    1
     3    19    18    1
     4    18    13    1
     5    13    14    1
     6    14    15    1
     7    15    16    1
     8    16    17    1
     9    17    12    1
    10    12     1    1
    11     1     2   ar
    12     2     3   ar
    13     3    22    1
    14    22    23    1
    15    23    24   ar
    16    24    25   ar
    17    25    26   ar
    18    26    27    1
    19    26    28   ar
    20    28    29   ar
    21     3     4   ar
    22     4     5   ar
    23     5     6   ar
    24     6     7   ar
    25     7     8   ar
    26     8     9   ar
    27     9    10   ar
    28    10    11    2
    29    17    13    1
    30    10     1   ar
    31    29    23   ar
    32     9     4   ar
@<TRIPOS>MOLECULE
*****
 29 32 0 0 0
SMALL
GASTEIGER

@<TRIPOS>ATOM
      1 N         139.1543  139.0408  165.3104 N.ar    1  UNL1       -0.2143
      2 N         140.0833  140.1615  164.9484 N.ar    1  UNL1       -0.1708
      3 C         140.5260  141.1374  165.9979 C.ar    1  UNL1        0.0846
      4 C         140.0396  140.9927  167.4095 C.ar    1  UNL1        0.0380
      5 C         140.4823  141.9686  168.4590 C.ar    1  UNL1        0.0045
      6 C         139.9960  141.8239  169.8706 C.ar    1  UNL1        0.0207
      7 C         139.0670  140.7033  170.2326 C.ar    1  UNL1        0.0990
      8 N         138.6243  139.7273  169.1831 N.ar    1  UNL1       -0.2389
      9 C         139.1106  139.8721  167.7715 C.ar    1  UNL1        0.1398
     10 C         138.6679  138.8961  166.7219 C.ar    1  UNL1        0.2941
     11 O         137.7389  137.7755  167.0839 O.2     1  UNL1       -0.2638
     12 C         138.7116  138.0649  164.2608 C.3     1  UNL1        0.1466
     13 N         140.4142  138.0804  162.2003 N.3     1  UNL1       -0.2700
     14 C         140.3170  138.4378  160.7467 C.3     1  UNL1        0.0722
     15 C         138.9094  138.8764  160.4703 C.3     1  UNL1        0.0188
     16 C         138.1367  138.7900  161.7531 C.3     1  UNL1        0.0194
     17 C         139.0667  138.2981  162.8222 C.3     1  UNL1        0.0822
     18 C         141.6432  137.5913  162.9076 C.3     1  UNL1        0.1046
     19 C         142.8862  138.4307  162.9191 C.3     1  UNL1        0.1595
     20 C         143.0146  138.2808  165.5096 C.3     1  UNL1        0.1742
     21 O         143.4554  138.9103  164.2214 O.3     1  UNL1       -0.3496
     22 C         141.4550  142.2580  165.6359 C.3     1  UNL1        0.0739
     23 C         141.0144  143.3138  164.6657 C.ar    1  UNL1       -0.0161
     24 C         139.5899  143.7837  164.6644 C.ar    1  UNL1       -0.0030
     25 C         139.1493  144.8394  163.6942 C.ar    1  UNL1        0.0111
     26 C         140.1332  145.4253  162.7253 C.ar    1  UNL1        0.0577
     27 CL        139.6926  146.4810  161.7552 Cl      1  UNL1       -0.0822
     28 C         141.5577  144.9554  162.7266 C.ar    1  UNL1        0.0111
     29 C         141.9983  143.8996  163.6968 C.ar    1  UNL1       -0.0030
@<TRIPOS>BOND
     1    20    21    1
     2    21    19    1
     3    19    18    1
     4    18    13    1
     5    13    14    1
     6    14    15    1
     7    15    16    1
     8    16    17    1
     9    17    12    1
    10    12     1    1
    11     1     2   ar
    12     2     3   ar
    13     3    22    1
    14    22    23    1
    15    23    24   ar
    16    24    25   ar
    17    25    26   ar
    18    26    27    1
    19    26    28   ar
    20    28    29   ar
    21     3     4   ar
    22     4     5   ar
    23     5     6   ar
    24     6     7   ar
    25     7     8   ar
    26     8     9   ar
    27     9    10   ar
    28    10    11    2
    29    17    13    1
    30    10     1   ar
    31    29    23   ar
    32     9     4   ar
@<TRIPOS>MOLECULE
*****
 29 32 0 0 0
SMALL
GASTEIGER

@<TRIPOS>ATOM
      1 N         142.7179  141.1706  166.0439 N.ar    1  UNL1       -0.2143
      2 N         141.6665  140.2356  165.5242 N.ar    1  UNL1       -0.1708
      3 C         140.4971  139.8671  166.3883 C.ar    1  UNL1        0.0846
      4 C         140.3791  140.4337  167.7722 C.ar    1  UNL1        0.0380
      5 C         139.2098  140.0652  168.6364 C.ar    1  UNL1        0.0045
      6 C         139.0918  140.6318  170.0202 C.ar    1  UNL1        0.0207
      7 C         140.1433  141.5668  170.5399 C.ar    1  UNL1        0.0990
      8 N         141.3127  141.9353  169.6758 N.ar    1  UNL1       -0.2389
      9 C         141.4306  141.3687  168.2920 C.ar    1  UNL1        0.1398
     10 C         142.6000  141.7372  167.4278 C.ar    1  UNL1        0.2941
     11 O         143.6515  142.6722  167.9475 O.2     1  UNL1       -0.2638
     12 C         143.8874  141.5391  165.1798 C.3     1  UNL1        0.1466
     13 N         143.4231  142.5542  162.7510 N.3     1  UNL1       -0.2700
     14 C         143.4204  143.9331  162.1606 C.3     1  UNL1        0.0722
     15 C         143.7673  144.9045  163.2497 C.3     1  UNL1        0.0188
     16 C         143.9845  144.1259  164.5133 C.3     1  UNL1        0.0194
     17 C         143.7718  142.6733  164.2051 C.3     1  UNL1        0.0822
     18 C         143.1289  141.2800  162.0164 C.3     1  UNL1        0.1046
     19 C         144.2231  140.2822  161.7772 C.3     1  UNL1        0.1595
     20 C         142.8811  138.2794  162.7454 C.3     1  UNL1        0.1742
     21 O         144.1930  138.9545  162.4744 O.3     1  UNL1       -0.3496
     22 C         139.4456  138.9321  165.8686 C.3     1  UNL1        0.0739
     23 C         138.8902  139.1209  164.4881 C.ar    1  UNL1       -0.0161
     24 C         139.0367  138.0332  163.4655 C.ar    1  UNL1       -0.0030
     25 C         138.4813  138.2220  162.0850 C.ar    1  UNL1        0.0111
     26 C         137.7793  139.4984  161.7270 C.ar    1  UNL1        0.0577
     27 CL        137.2239  139.6872  160.3465 Cl      1  UNL1       -0.0822
     28 C         137.6328  140.5860  162.7495 C.ar    1  UNL1        0.0111
     29 C         138.1883  140.3973  164.1301 C.ar    1  UNL1       -0.0030
@<TRIPOS>BOND
     1    20    21    1
     2    21    19    1
     3    19    18    1
     4    18    13    1
     5    13    14    1
     6    14    15    1
     7    15    16    1
     8    16    17    1
     9    17    12    1
    10    12     1    1
    11     1     2   ar
    12     2     3   ar
    13     3    22    1
    14    22    23    1
    15    23    24   ar
    16    24    25   ar
    17    25    26   ar
    18    26    27    1
    19    26    28   ar
    20    28    29   ar
    21     3     4   ar
    22     4     5   ar
    23     5     6   ar
    24     6     7   ar
    25     7     8   ar
    26     8     9   ar
    27     9    10   ar
    28    10    11    2
    29    17    13    1
    30    10     1   ar
    31    29    23   ar
    32     9     4   ar
@<TRIPOS>MOLECULE
*****
 29 32 0 0 0
SMALL
GASTEIGER

@<TRIPOS>ATOM
      1 N         141.8557  139.1243  165.5996 N.ar    1  UNL1       -0.2143
      2 N         140.7101  140.0383  165.2801 N.ar    1  UNL1       -0.1708
      3 C         140.3313  141.1290  166.2376 C.ar    1  UNL1        0.0846
      4 C         141.0982  141.3057  167.5147 C.ar    1  UNL1        0.0380
      5 C         140.7194  142.3964  168.4722 C.ar    1  UNL1        0.0045
      6 C         141.4862  142.5730  169.7492 C.ar    1  UNL1        0.0207
      7 C         142.6318  141.6589  170.0687 C.ar    1  UNL1        0.0990
      8 N         143.0106  140.5682  169.1112 N.ar    1  UNL1       -0.2389
      9 C         142.2438  140.3916  167.8342 C.ar    1  UNL1        0.1398
     10 C         142.6225  139.3009  166.8766 C.ar    1  UNL1        0.2941
     11 O         143.7681  138.3868  167.1961 O.2     1  UNL1       -0.2638
     12 C         142.2345  138.0335  164.6420 C.3     1  UNL1        0.1466
     13 N         143.9661  139.1978  162.9714 N.3     1  UNL1       -0.2700
     14 C         144.1014  139.2924  161.4805 C.3     1  UNL1        0.0722
     15 C         142.9650  138.5328  160.8628 C.3     1  UNL1        0.0188
     16 C         142.1273  137.9688  161.9719 C.3     1  UNL1        0.0194
     17 C         142.7460  138.3798  163.2751 C.3     1  UNL1        0.0822
     18 C         144.8889  139.8132  163.9812 C.3     1  UNL1        0.1046
     19 C         145.5637  141.1192  163.6829 C.3     1  UNL1        0.1595
     20 C         143.9960  142.4388  165.2799 C.3     1  UNL1        0.1742
     21 O         144.9192  142.4084  164.0981 O.3     1  UNL1       -0.3496
     22 C         139.1857  142.0431  165.9181 C.3     1  UNL1        0.0739
     23 C         139.3504  143.1198  164.8869 C.ar    1  UNL1       -0.0161
     24 C         140.6709  143.8146  164.7322 C.ar    1  UNL1       -0.0030
     25 C         140.8355  144.8913  163.7010 C.ar    1  UNL1        0.0111
     26 C         139.6799  145.2733  162.8244 C.ar    1  UNL1        0.0577
     27 CL        139.8445  146.3500  161.7931 Cl      1  UNL1       -0.0822
     28 C         138.3595  144.5786  162.9790 C.ar    1  UNL1        0.0111
     29 C         138.1947  143.5018  164.0103 C.ar    1  UNL1       -0.0030
@<TRIPOS>BOND
     1    20    21    1
     2    21    19    1
     3    19    18    1
     4    18    13    1
     5    13    14    1
     6    14    15    1
     7    15    16    1
     8    16    17    1
     9    17    12    1
    10    12     1    1
    11     1     2   ar
    12     2     3   ar
    13     3    22    1
    14    22    23    1
    15    23    24   ar
    16    24    25   ar
    17    25    26   ar
    18    26    27    1
    19    26    28   ar
    20    28    29   ar
    21     3     4   ar
    22     4     5   ar
    23     5     6   ar
    24     6     7   ar
    25     7     8   ar
    26     8     9   ar
    27     9    10   ar
    28    10    11    2
    29    17    13    1
    30    10     1   ar
    31    29    23   ar
    32     9     4   ar
@<TRIPOS>MOLECULE
*****
 29 32 0 0 0
SMALL
GASTEIGER

@<TRIPOS>ATOM
      1 N         139.6978  140.3878  166.3805 N.ar    1  UNL1       -0.2143
      2 N         140.7135  141.1295  165.5631 N.ar    1  UNL1       -0.1708
      3 C         141.8751  141.7979  166.2368 C.ar    1  UNL1        0.0846
      4 C         142.0210  141.7247  167.7279 C.ar    1  UNL1        0.0380
      5 C         143.1826  142.3932  168.4016 C.ar    1  UNL1        0.0045
      6 C         143.3284  142.3199  169.8927 C.ar    1  UNL1        0.0207
      7 C         142.3126  141.5782  170.7101 C.ar    1  UNL1        0.0990
      8 N         141.1510  140.9098  170.0364 N.ar    1  UNL1       -0.2389
      9 C         141.0052  140.9830  168.5453 C.ar    1  UNL1        0.1398
     10 C         139.8436  140.3146  167.8716 C.ar    1  UNL1        0.2941
     11 O         138.8278  139.5729  168.6890 O.2     1  UNL1       -0.2638
     12 C         138.5362  139.7193  165.7068 C.3     1  UNL1        0.1466
     13 N         138.3629  139.1016  163.1119 N.3     1  UNL1       -0.2700
     14 C         137.9293  139.8306  161.8748 C.3     1  UNL1        0.0722
     15 C         137.5137  141.2154  162.2743 C.3     1  UNL1        0.0188
     16 C         137.6904  141.3423  163.7585 C.3     1  UNL1        0.0194
     17 C         138.2153  140.0359  164.2761 C.3     1  UNL1        0.0822
     18 C         138.8573  137.6868  163.1740 C.3     1  UNL1        0.1046
     19 C         140.3250  137.4106  163.3146 C.3     1  UNL1        0.1595
     20 C         142.4319  138.0727  161.9463 C.3     1  UNL1        0.1742
     21 O         141.1802  137.2590  162.0917 O.3     1  UNL1       -0.3496
     22 C         142.8909  142.5396  165.4194 C.3     1  UNL1        0.0739
     23 C         142.4789  143.2178  164.1465 C.ar    1  UNL1       -0.0161
     24 C         141.5471  144.3925  164.1901 C.ar    1  UNL1       -0.0030
     25 C         141.1351  145.0706  162.9172 C.ar    1  UNL1        0.0111
     26 C         141.6549  144.5742  161.6006 C.ar    1  UNL1        0.0577
     27 CL        141.2430  145.2524  160.3277 Cl      1  UNL1       -0.0822
     28 C         142.5867  143.3996  161.5570 C.ar    1  UNL1        0.0111
     29 C         142.9988  142.7213  162.8299 C.ar    1  UNL1       -0.0030
@<TRIPOS>BOND
     1    20    21    1
     2    21    19    1
     3    19    18    1
     4    18    13    1
     5    13    14    1
     6    14    15    1
     7    15    16    1
     8    16    17    1
     9    17    12    1
    10    12     1    1
    11     1     2   ar
    12     2     3   ar
    13     3    22    1
    14    22    23    1
    15    23    24   ar
    16    24    25   ar
    17    25    26   ar
    18    26    27    1
    19    26    28   ar
    20    28    29   ar
    21     3     4   ar
    22     4     5   ar
    23     5     6   ar
    24     6     7   ar
    25     7     8   ar
    26     8     9   ar
    27     9    10   ar
    28    10    11    2
    29    17    13    1
    30    10     1   ar
    31    29    23   ar
    32     9     4   ar
@<TRIPOS>MOLECULE
*****
 29 32 0 0 0
SMALL
GASTEIGER

@<TRIPOS>ATOM
      1 N         142.3846  139.9076  166.7573 N.ar    1  UNL1       -0.2143
      2 N         141.6987  141.0360  166.0458 N.ar    1  UNL1       -0.1708
      3 C         140.9844  142.0948  166.8323 C.ar    1  UNL1        0.0846
      4 C         140.9560  142.0252  168.3305 C.ar    1  UNL1        0.0380
      5 C         140.2417  143.0840  169.1171 C.ar    1  UNL1        0.0045
      6 C         140.2134  143.0144  170.6152 C.ar    1  UNL1        0.0207
      7 C         140.8993  141.8860  171.3267 C.ar    1  UNL1        0.0990
      8 N         141.6136  140.8272  170.5401 N.ar    1  UNL1       -0.2389
      9 C         141.6420  140.8968  169.0420 C.ar    1  UNL1        0.1398
     10 C         142.3563  139.8380  168.2553 C.ar    1  UNL1        0.2941
     11 O         143.0422  138.7096  168.9668 O.2     1  UNL1       -0.2638
     12 C         143.0989  138.8488  165.9706 C.3     1  UNL1        0.1466
     13 N         143.0253  138.5425  163.3163 N.3     1  UNL1       -0.2700
     14 C         142.1143  137.8387  162.3546 C.3     1  UNL1        0.0722
     15 C         141.0219  137.1830  163.1463 C.3     1  UNL1        0.0188
     16 C         141.2578  137.4817  164.5973 C.3     1  UNL1        0.0194
     17 C         142.4960  138.3218  164.7023 C.3     1  UNL1        0.0822
     18 C         144.2506  139.3288  162.9552 C.3     1  UNL1        0.1046
     19 C         144.2557  140.8212  163.1065 C.3     1  UNL1        0.1595
     20 C         144.5048  142.8412  164.7212 C.3     1  UNL1        0.1742
     21 O         144.8904  141.4508  164.3109 O.3     1  UNL1       -0.3496
     22 C         140.2984  143.2232  166.1208 C.3     1  UNL1        0.0739
     23 C         139.7633  143.0205  164.7343 C.ar    1  UNL1       -0.0161
     24 C         138.3805  142.4737  164.5365 C.ar    1  UNL1       -0.0030
     25 C         137.8453  142.2711  163.1500 C.ar    1  UNL1        0.0111
     26 C         138.6928  142.6153  161.9612 C.ar    1  UNL1        0.0577
     27 CL        138.1576  142.4127  160.5747 Cl      1  UNL1       -0.0822
     28 C         140.0755  143.1621  162.1589 C.ar    1  UNL1        0.0111
     29 C         140.6108  143.3647  163.5455 C.ar    1  UNL1       -0.0030
@<TRIPOS>BOND
     1    20    21    1
     2    21    19    1
     3    19    18    1
     4    18    13    1
     5    13    14    1
     6    14    15    1
     7    15    16    1
     8    16    17    1
     9    17    12    1
    10    12     1    1
    11     1     2   ar
    12     2     3   ar
    13     3    22    1
    14    22    23    1
    15    23    24   ar
    16    24    25   ar
    17    25    26   ar
    18    26    27    1
    19    26    28   ar
    20    28    29   ar
    21     3     4   ar
    22     4     5   ar
    23     5     6   ar
    24     6     7   ar
    25     7     8   ar
    26     8     9   ar
    27     9    10   ar
    28    10    11    2
    29    17    13    1
    30    10     1   ar
    31    29    23   ar
    32     9     4   ar
@<TRIPOS>MOLECULE
*****
 29 32 0 0 0
SMALL
GASTEIGER

@<TRIPOS>ATOM
      1 N         142.5802  139.2290  165.0277 N.ar    1  UNL1       -0.2143
      2 N         141.3681  140.0893  164.8256 N.ar    1  UNL1       -0.1708
      3 C         140.6291  140.6345  166.0116 C.ar    1  UNL1        0.0846
      4 C         141.1022  140.3194  167.3998 C.ar    1  UNL1        0.0380
      5 C         140.3632  140.8646  168.5858 C.ar    1  UNL1        0.0045
      6 C         140.8363  140.5495  169.9739 C.ar    1  UNL1        0.0207
      7 C         142.0483  139.6892  170.1760 C.ar    1  UNL1        0.0990
      8 N         142.7873  139.1440  168.9900 N.ar    1  UNL1       -0.2389
      9 C         142.3143  139.4591  167.6019 C.ar    1  UNL1        0.1398
     10 C         143.0533  138.9140  166.4158 C.ar    1  UNL1        0.2941
     11 O         144.2653  138.0537  166.6179 O.2     1  UNL1       -0.2638
     12 C         143.3192  138.6839  163.8416 C.3     1  UNL1        0.1466
     13 N         142.9781  139.3360  161.2720 N.3     1  UNL1       -0.2700
     14 C         143.4732  140.4377  160.3825 C.3     1  UNL1        0.0722
     15 C         144.3546  141.3338  161.2013 C.3     1  UNL1        0.0188
     16 C         144.4041  140.7858  162.5968 C.3     1  UNL1        0.0194
     17 C         143.5534  139.5511  162.6404 C.3     1  UNL1        0.0822
     18 C         142.0676  138.2158  160.8644 C.3     1  UNL1        0.1046
     19 C         140.6405  138.2033  161.3264 C.3     1  UNL1        0.1595
     20 C         138.9475  137.6430  163.2157 C.3     1  UNL1        0.1742
     21 O         140.2421  137.3707  162.5087 O.3     1  UNL1       -0.3496
     22 C         139.4171  141.4947  165.8095 C.3     1  UNL1        0.0739
     23 C         139.4789  142.6715  164.8814 C.ar    1  UNL1       -0.0161
     24 C         140.6989  143.5439  164.8566 C.ar    1  UNL1       -0.0030
     25 C         140.7607  144.7207  163.9286 C.ar    1  UNL1        0.0111
     26 C         139.6025  145.0251  163.0253 C.ar    1  UNL1        0.0577
     27 CL        139.6643  146.2019  162.0972 Cl      1  UNL1       -0.0822
     28 C         138.3825  144.1528  163.0501 C.ar    1  UNL1        0.0111
     29 C         138.3207  142.9760  163.9782 C.ar    1  UNL1       -0.0030
@<TRIPOS>BOND
     1    20    21    1
     2    21    19    1
     3    19    18    1
     4    18    13    1
     5    13    14    1
     6    14    15    1
     7    15    16    1
     8    16    17    1
     9    17    12    1
    10    12     1    1
    11     1     2   ar
    12     2     3   ar
    13     3    22    1
    14    22    23    1
    15    23    24   ar
    16    24    25   ar
    17    25    26   ar
    18    26    27    1
    19    26    28   ar
    20    28    29   ar
    21     3     4   ar
    22     4     5   ar
    23     5     6   ar
    24     6     7   ar
    25     7     8   ar
    26     8     9   ar
    27     9    10   ar
    28    10    11    2
    29    17    13    1
    30    10     1   ar
    31    29    23   ar
    32     9     4   ar
@<TRIPOS>MOLECULE
*****
 29 32 0 0 0
SMALL
GASTEIGER

@<TRIPOS>ATOM
      1 N         142.4243  139.7778  166.7666 N.ar    1  UNL1       -0.2143
      2 N         141.7802  140.8831  165.9834 N.ar    1  UNL1       -0.1708
      3 C         141.0732  141.9958  166.6989 C.ar    1  UNL1        0.0846
      4 C         141.0103  142.0033  168.1976 C.ar    1  UNL1        0.0380
      5 C         140.3033  143.1160  168.9131 C.ar    1  UNL1        0.0045
      6 C         140.2404  143.1234  170.4117 C.ar    1  UNL1        0.0207
      7 C         140.8846  142.0180  171.1949 C.ar    1  UNL1        0.0990
      8 N         141.5915  140.9053  170.4794 N.ar    1  UNL1       -0.2389
      9 C         141.6544  140.8979  168.9808 C.ar    1  UNL1        0.1398
     10 C         142.3614  139.7851  168.2652 C.ar    1  UNL1        0.2941
     11 O         143.0055  138.6798  169.0483 O.2     1  UNL1       -0.2638
     12 C         143.1313  138.6650  166.0510 C.3     1  UNL1        0.1466
     13 N         142.3000  138.0080  163.5970 N.3     1  UNL1       -0.2700
     14 C         142.7813  138.2869  162.2040 C.3     1  UNL1        0.0722
     15 C         144.0154  139.1341  162.3009 C.3     1  UNL1        0.0188
     16 C         144.2967  139.3789  163.7538 C.3     1  UNL1        0.0194
     17 C         143.2365  138.6829  164.5548 C.3     1  UNL1        0.0822
     18 C         141.0938  137.1968  163.9672 C.3     1  UNL1        0.1046
     19 C         139.7417  137.8441  164.0198 C.3     1  UNL1        0.1595
     20 C         138.5031  138.9906  165.9949 C.3     1  UNL1        0.1742
     21 O         138.9108  137.7454  165.2647 O.3     1  UNL1       -0.3496
     22 C         140.4291  143.1012  165.9158 C.3     1  UNL1        0.0739
     23 C         139.8552  142.8227  164.5582 C.ar    1  UNL1       -0.0161
     24 C         140.7099  142.9814  163.3356 C.ar    1  UNL1       -0.0030
     25 C         140.1360  142.7029  161.9781 C.ar    1  UNL1        0.0111
     26 C         138.7075  142.2658  161.8429 C.ar    1  UNL1        0.0577
     27 CL        138.1337  141.9873  160.4853 Cl      1  UNL1       -0.0822
     28 C         137.8529  142.1070  163.0653 C.ar    1  UNL1        0.0111
     29 C         138.4267  142.3855  164.4230 C.ar    1  UNL1       -0.0030
@<TRIPOS>BOND
     1    20    21    1
     2    21    19    1
     3    19    18    1
     4    18    13    1
     5    13    14    1
     6    14    15    1
     7    15    16    1
     8    16    17    1
     9    17    12    1
    10    12     1    1
    11     1     2   ar
    12     2     3   ar
    13     3    22    1
    14    22    23    1
    15    23    24   ar
    16    24    25   ar
    17    25    26   ar
    18    26    27    1
    19    26    28   ar
    20    28    29   ar
    21     3     4   ar
    22     4     5   ar
    23     5     6   ar
    24     6     7   ar
    25     7     8   ar
    26     8     9   ar
    27     9    10   ar
    28    10    11    2
    29    17    13    1
    30    10     1   ar
    31    29    23   ar
    32     9     4   ar
@<TRIPOS>MOLECULE
*****
 29 32 0 0 0
SMALL
GASTEIGER

@<TRIPOS>ATOM
      1 N         139.8529  140.8355  166.1929 N.ar    1  UNL1       -0.2143
      2 N         141.0116  141.6742  165.7414 N.ar    1  UNL1       -0.1708
      3 C         142.1619  141.9264  166.6704 C.ar    1  UNL1        0.0846
      4 C         142.1536  141.3398  168.0510 C.ar    1  UNL1        0.0380
      5 C         143.3039  141.5919  168.9800 C.ar    1  UNL1        0.0045
      6 C         143.2955  141.0054  170.3605 C.ar    1  UNL1        0.0207
      7 C         142.1367  140.1666  170.8120 C.ar    1  UNL1        0.0990
      8 N         140.9864  139.9145  169.8830 N.ar    1  UNL1       -0.2389
      9 C         140.9948  140.5010  168.5025 C.ar    1  UNL1        0.1398
     10 C         139.8444  140.2489  167.5734 C.ar    1  UNL1        0.2941
     11 O         138.6857  139.4102  168.0249 O.2     1  UNL1       -0.2638
     12 C         138.7025  140.5833  165.2638 C.3     1  UNL1        0.1466
     13 N         138.4150  141.4072  162.7373 N.3     1  UNL1       -0.2700
     14 C         137.9635  142.6781  162.0810 C.3     1  UNL1        0.0722
     15 C         137.6115  143.6579  163.1609 C.3     1  UNL1        0.0188
     16 C         137.8455  142.9924  164.4847 C.3     1  UNL1        0.0194
     17 C         138.3421  141.6014  164.2229 C.3     1  UNL1        0.0822
     18 C         138.8611  140.1608  162.0318 C.3     1  UNL1        0.1046
     19 C         138.0368  138.9110  162.1238 C.3     1  UNL1        0.1595
     20 C         140.0449  137.5325  163.0275 C.3     1  UNL1        0.1742
     21 O         138.5656  137.7163  162.8608 O.3     1  UNL1       -0.3496
     22 C         143.3207  142.7651  166.2189 C.3     1  UNL1        0.0739
     23 C         143.7568  142.7316  164.7842 C.ar    1  UNL1       -0.0161
     24 C         144.6406  141.6228  164.2946 C.ar    1  UNL1       -0.0030
     25 C         145.0767  141.5892  162.8598 C.ar    1  UNL1        0.0111
     26 C         144.6290  142.6645  161.9145 C.ar    1  UNL1        0.0577
     27 CL        145.0652  142.6309  160.4798 Cl      1  UNL1       -0.0822
     28 C         143.7453  143.7732  162.4040 C.ar    1  UNL1        0.0111
     29 C         143.3092  143.8068  163.8389 C.ar    1  UNL1       -0.0030
@<TRIPOS>BOND
     1    20    21    1
     2    21    19    1
     3    19    18    1
     4    18    13    1
     5    13    14    1
     6    14    15    1
     7    15    16    1
     8    16    17    1
     9    17    12    1
    10    12     1    1
    11     1     2   ar
    12     2     3   ar
    13     3    22    1
    14    22    23    1
    15    23    24   ar
    16    24    25   ar
    17    25    26   ar
    18    26    27    1
    19    26    28   ar
    20    28    29   ar
    21     3     4   ar
    22     4     5   ar
    23     5     6   ar
    24     6     7   ar
    25     7     8   ar
    26     8     9   ar
    27     9    10   ar
    28    10    11    2
    29    17    13    1
    30    10     1   ar
    31    29    23   ar
    32     9     4   ar
