@<TRIPOS>MOLECULE
*****
 41 46 0 0 0
SMALL
GASTEIGER

@<TRIPOS>ATOM
      1 C         138.1741  139.8128  160.0747 C.ar    1  UNL1        0.2020
      2 N         137.6711  140.5620  161.2729 N.ar    1  UNL1       -0.1802
      3 C         138.1714  140.2093  162.6424 C.ar    1  UNL1        0.2299
      4 C         139.1747  139.1075  162.8136 C.ar    1  UNL1        0.0886
      5 C         139.8450  138.5403  164.0298 C.ar    1  UNL1        0.0267
      6 C         140.7622  137.4407  163.5832 C.ar    1  UNL1        0.1007
      7 N         140.6589  137.3282  162.0910 N.ar    1  UNL1       -0.2267
      8 C         139.6778  138.3584  161.6153 C.ar    1  UNL1        0.1471
      9 N         139.1775  138.7110  160.2459 N.ar    1  UNL1       -0.3117
     10 H         139.5077  138.2193  159.4595 H       1  UNL1        0.1700
     11 C         139.6348  138.9933  165.4442 C.ar    1  UNL1        0.0049
     12 C         138.3338  138.7128  166.1361 C.ar    1  UNL1        0.0018
     13 C         138.1237  139.1659  167.5506 C.ar    1  UNL1        0.0223
     14 C         139.2145  139.8994  168.2731 C.ar    1  UNL1        0.1185
     15 N         139.2961  140.4642  169.6603 N.ar    1  UNL1       -0.2121
     16 C         140.6474  141.0938  169.8257 C.ar    1  UNL1        0.2062
     17 C         141.1559  141.7789  171.0594 C.3     1  UNL1        0.0950
     18 O         141.4011  140.9181  168.5408 O.2     1  UNL1       -0.4384
     19 C         140.5155  140.1799  167.5812 C.ar    1  UNL1        0.1644
     20 C         140.7256  139.7269  166.1667 C.ar    1  UNL1        0.0392
     21 N         137.6738  140.1655  158.7053 N.pl3   1  UNL1       -0.2816
     22 H         137.0311  139.5756  158.2490 H       1  UNL1        0.1551
     23 C         139.1106  143.9198  156.6827 C.ar    1  UNL1        0.0565
     24 C         139.8994  143.3279  157.8129 C.ar    1  UNL1        0.0060
     25 C         139.4205  142.0764  158.4871 C.ar    1  UNL1        0.0179
     26 C         138.1527  141.4169  158.0311 C.ar    1  UNL1        0.0849
     27 C         137.3639  142.0089  156.9009 C.ar    1  UNL1        0.1522
     28 C         137.8428  143.2603  156.2267 C.ar    1  UNL1        0.0427
     29 C         139.0883  147.4945  154.9591 C.3     1  UNL1        0.1109
     30 N         138.6095  146.2431  155.6333 N.am    1  UNL1       -0.2992
     31 C         139.5895  145.1713  156.0085 C.2     1  UNL1        0.2460
     32 O         141.0483  145.3509  155.7096 O.2     1  UNL1       -0.2701
     33 H         137.6519  146.1252  155.8295 H       1  UNL1        0.1498
     34 O         136.0962  141.3494  156.4449 O.3     1  UNL1       -0.4702
     35 C         135.4591  141.7627  155.1513 C.3     1  UNL1        0.2525
     36 O         137.6684  140.9584  163.8406 O.3     1  UNL1       -0.4639
     37 C         138.2948  142.2661  164.2249 C.3     1  UNL1        0.1675
     38 C         137.5616  143.5043  164.6484 C.3     1  UNL1        0.0436
     39 C         138.5781  144.5685  164.9384 C.3     1  UNL1        0.0038
     40 C         139.9395  143.9881  164.6942 C.3     1  UNL1        0.0038
     41 C         139.7644  142.5651  164.2532 C.3     1  UNL1        0.0436
@<TRIPOS>BOND
     1    29    30    1
     2    30    31   am
     3    31    32    2
     4    31    23    1
     5    23    24   ar
     6    24    25   ar
     7    25    26   ar
     8    26    21    1
     9    21     1    1
    10     1     2   ar
    11     2     3   ar
    12     3    36    1
    13    36    37    1
    14    37    38    1
    15    38    39    1
    16    39    40    1
    17    40    41    1
    18     3     4   ar
    19     4     5   ar
    20     5    11    1
    21    11    12   ar
    22    12    13   ar
    23    13    14   ar
    24    14    15   ar
    25    15    16   ar
    26    16    17    1
    27    16    18   ar
    28    18    19   ar
    29    19    20   ar
    30     5     6   ar
    31     6     7   ar
    32     7     8   ar
    33     8     9   ar
    34    26    27   ar
    35    27    34    1
    36    34    35    1
    37    27    28   ar
    38    28    23   ar
    39     9     1   ar
    40    41    37    1
    41     8     4    1
    42    20    11   ar
    43    19    14   ar
    44    30    33    1
    45    21    22    1
    46     9    10    1
@<TRIPOS>MOLECULE
*****
 41 46 0 0 0
SMALL
GASTEIGER

@<TRIPOS>ATOM
      1 C         142.1748  137.8432  158.7112 C.ar    1  UNL1        0.2020
      2 N         142.4462  137.4470  160.1323 N.ar    1  UNL1       -0.1802
      3 C         141.5905  137.9893  161.2386 C.ar    1  UNL1        0.2299
      4 C         140.4635  138.9277  160.9237 C.ar    1  UNL1        0.0886
      5 C         139.4586  139.6183  161.7974 C.ar    1  UNL1        0.0267
      6 C         138.5662  140.4413  160.9164 C.ar    1  UNL1        0.1007
      7 N         139.0195  140.2594  159.4981 N.ar    1  UNL1       -0.2267
      8 C         140.1921  139.3239  159.5027 C.ar    1  UNL1        0.1471
      9 N         141.0477  138.7817  158.3964 N.ar    1  UNL1       -0.3117
     10 H         140.8696  139.0417  157.4638 H       1  UNL1        0.1700
     11 C         139.3629  139.5057  163.2901 C.ar    1  UNL1        0.0049
     12 C         138.7807  138.2718  163.9134 C.ar    1  UNL1        0.0018
     13 C         138.6851  138.1592  165.4061 C.ar    1  UNL1        0.0223
     14 C         139.1717  139.2805  166.2756 C.ar    1  UNL1        0.1185
     15 N         139.2065  139.4530  167.7652 N.ar    1  UNL1       -0.2121
     16 C         139.8103  140.7935  168.0626 C.ar    1  UNL1        0.2062
     17 C         140.0361  141.3759  169.4263 C.3     1  UNL1        0.0950
     18 O         140.1487  141.4495  166.7568 O.2     1  UNL1       -0.4384
     19 C         139.7540  140.5144  165.6523 C.ar    1  UNL1        0.1644
     20 C         139.8496  140.6269  164.1596 C.ar    1  UNL1        0.0392
     21 N         143.0305  137.3010  157.6050 N.pl3   1  UNL1       -0.2816
     22 H         143.8193  137.8053  157.3005 H       1  UNL1        0.1551
     23 C         141.9921  133.3692  155.6783 C.ar    1  UNL1        0.0565
     24 C         143.0878  133.4373  156.7004 C.ar    1  UNL1        0.0060
     25 C         143.4340  134.7479  157.3427 C.ar    1  UNL1        0.0179
     26 C         142.6844  135.9904  156.9628 C.ar    1  UNL1        0.0849
     27 C         141.5886  135.9222  155.9407 C.ar    1  UNL1        0.1522
     28 C         141.2425  134.6116  155.2985 C.ar    1  UNL1        0.0427
     29 C         141.7812  129.4642  155.0024 C.3     1  UNL1        0.1109
     30 N         142.1274  130.7748  155.6446 N.am    1  UNL1       -0.2992
     31 C         141.6459  132.0585  155.0360 C.2     1  UNL1        0.2460
     32 O         140.8184  132.0316  153.7853 O.2     1  UNL1       -0.2701
     33 H         142.6705  130.7925  156.4655 H       1  UNL1        0.1498
     34 O         140.8390  137.1647  155.5608 O.3     1  UNL1       -0.4702
     35 C         139.3430  137.1994  155.6647 C.3     1  UNL1        0.2525
     36 O         141.8618  137.5931  162.6596 O.3     1  UNL1       -0.4639
     37 C         142.8528  138.3669  163.4778 C.3     1  UNL1        0.1675
     38 C         142.8383  138.5167  164.9702 C.3     1  UNL1        0.0436
     39 C         144.0087  139.3692  165.3619 C.3     1  UNL1        0.0038
     40 C         144.7466  139.7462  164.1115 C.3     1  UNL1        0.0038
     41 C         144.0322  139.1268  162.9471 C.3     1  UNL1        0.0436
@<TRIPOS>BOND
     1    29    30    1
     2    30    31   am
     3    31    32    2
     4    31    23    1
     5    23    24   ar
     6    24    25   ar
     7    25    26   ar
     8    26    21    1
     9    21     1    1
    10     1     2   ar
    11     2     3   ar
    12     3    36    1
    13    36    37    1
    14    37    38    1
    15    38    39    1
    16    39    40    1
    17    40    41    1
    18     3     4   ar
    19     4     5   ar
    20     5    11    1
    21    11    12   ar
    22    12    13   ar
    23    13    14   ar
    24    14    15   ar
    25    15    16   ar
    26    16    17    1
    27    16    18   ar
    28    18    19   ar
    29    19    20   ar
    30     5     6   ar
    31     6     7   ar
    32     7     8   ar
    33     8     9   ar
    34    26    27   ar
    35    27    34    1
    36    34    35    1
    37    27    28   ar
    38    28    23   ar
    39     9     1   ar
    40    41    37    1
    41     8     4    1
    42    20    11   ar
    43    19    14   ar
    44    30    33    1
    45    21    22    1
    46     9    10    1
@<TRIPOS>MOLECULE
*****
 41 46 0 0 0
SMALL
GASTEIGER

@<TRIPOS>ATOM
      1 C         140.4641  140.9206  159.5026 C.ar    1  UNL1        0.2020
      2 N         141.0638  140.1526  160.6431 N.ar    1  UNL1       -0.1802
      3 C         140.5278  140.3325  162.0325 C.ar    1  UNL1        0.2299
      4 C         139.3922  141.2803  162.2814 C.ar    1  UNL1        0.0886
      5 C         138.6597  141.6622  163.5335 C.ar    1  UNL1        0.0267
      6 C         137.6073  142.6663  163.1669 C.ar    1  UNL1        0.1007
      7 N         137.6894  142.9049  161.6883 N.ar    1  UNL1       -0.2267
      8 C         138.7926  142.0483  161.1410 C.ar    1  UNL1        0.1471
      9 N         139.3285  141.8685  159.7516 N.ar    1  UNL1       -0.3117
     10 H         138.9349  142.3726  159.0032 H       1  UNL1        0.1700
     11 C         138.9318  141.1330  164.9104 C.ar    1  UNL1        0.0049
     12 C         138.3185  139.8368  165.3504 C.ar    1  UNL1        0.0018
     13 C         138.5907  139.3076  166.7274 C.ar    1  UNL1        0.0223
     14 C         139.4761  140.0746  167.6642 C.ar    1  UNL1        0.1185
     15 N         139.9222  139.8046  169.0707 N.ar    1  UNL1       -0.2121
     16 C         140.8113  140.9339  169.4999 C.ar    1  UNL1        0.2062
     17 C         141.4796  141.0713  170.8356 C.3     1  UNL1        0.0950
     18 O         140.9146  141.9019  168.3586 O.2     1  UNL1       -0.4384
     19 C         140.0895  141.3708  167.2242 C.ar    1  UNL1        0.1644
     20 C         139.8173  141.9000  165.8472 C.ar    1  UNL1        0.0392
     21 N         141.0000  140.7408  158.1133 N.pl3   1  UNL1       -0.2816
     22 H         141.1499  141.5256  157.5380 H       1  UNL1        0.1551
     23 C         141.9231  136.6141  156.5744 C.ar    1  UNL1        0.0565
     24 C         140.5266  137.1539  156.4823 C.ar    1  UNL1        0.0060
     25 C         140.2189  138.5295  156.9953 C.ar    1  UNL1        0.0179
     26 C         141.3077  139.3652  157.6003 C.ar    1  UNL1        0.0849
     27 C         142.7042  138.8254  157.6924 C.ar    1  UNL1        0.1522
     28 C         143.0118  137.4498  157.1795 C.ar    1  UNL1        0.0427
     29 C         141.4307  132.9837  155.0485 C.3     1  UNL1        0.1109
     30 N         141.1231  134.3593  155.5615 N.am    1  UNL1       -0.2992
     31 C         142.2308  135.2384  156.0615 C.2     1  UNL1        0.2460
     32 O         143.6462  134.7420  156.0486 O.2     1  UNL1       -0.2701
     33 H         140.1941  134.6851  155.5700 H       1  UNL1        0.1498
     34 O         143.7930  139.6611  158.2975 O.3     1  UNL1       -0.4702
     35 C         144.5339  140.6541  157.4519 C.3     1  UNL1        0.2525
     36 O         141.1275  139.5645  163.1729 O.3     1  UNL1       -0.4639
     37 C         142.5283  139.8592  163.6213 C.3     1  UNL1        0.1675
     38 C         143.0138  141.1534  164.2038 C.3     1  UNL1        0.0436
     39 C         144.4751  141.0054  164.5083 C.3     1  UNL1        0.0038
     40 C         144.8928  139.6197  164.1139 C.3     1  UNL1        0.0038
     41 C         143.6896  138.9114  163.5657 C.3     1  UNL1        0.0436
@<TRIPOS>BOND
     1    29    30    1
     2    30    31   am
     3    31    32    2
     4    31    23    1
     5    23    24   ar
     6    24    25   ar
     7    25    26   ar
     8    26    21    1
     9    21     1    1
    10     1     2   ar
    11     2     3   ar
    12     3    36    1
    13    36    37    1
    14    37    38    1
    15    38    39    1
    16    39    40    1
    17    40    41    1
    18     3     4   ar
    19     4     5   ar
    20     5    11    1
    21    11    12   ar
    22    12    13   ar
    23    13    14   ar
    24    14    15   ar
    25    15    16   ar
    26    16    17    1
    27    16    18   ar
    28    18    19   ar
    29    19    20   ar
    30     5     6   ar
    31     6     7   ar
    32     7     8   ar
    33     8     9   ar
    34    26    27   ar
    35    27    34    1
    36    34    35    1
    37    27    28   ar
    38    28    23   ar
    39     9     1   ar
    40    41    37    1
    41     8     4    1
    42    20    11   ar
    43    19    14   ar
    44    30    33    1
    45    21    22    1
    46     9    10    1
@<TRIPOS>MOLECULE
*****
 41 46 0 0 0
SMALL
GASTEIGER

@<TRIPOS>ATOM
      1 C         139.1706  139.0147  159.8673 C.ar    1  UNL1        0.2020
      2 N         139.7451  138.3158  161.0638 N.ar    1  UNL1       -0.1802
      3 C         139.5314  138.8810  162.4368 C.ar    1  UNL1        0.2299
      4 C         138.7433  140.1450  162.6132 C.ar    1  UNL1        0.0886
      5 C         138.3707  140.9335  163.8337 C.ar    1  UNL1        0.0267
      6 C         137.5660  142.1196  163.3915 C.ar    1  UNL1        0.1007
      7 N         137.4412  142.0642  161.8978 N.ar    1  UNL1       -0.2267
      8 C         138.1688  140.8439  161.4167 C.ar    1  UNL1        0.1471
      9 N         138.3824  140.2787  160.0438 N.ar    1  UNL1       -0.3117
     10 H         138.0054  140.7374  159.2585 H       1  UNL1        0.1700
     11 C         138.7384  140.5951  165.2480 C.ar    1  UNL1        0.0049
     12 C         138.0695  139.4461  165.9425 C.ar    1  UNL1        0.0018
     13 C         138.4372  139.1079  167.3569 C.ar    1  UNL1        0.0223
     14 C         139.4738  139.9186  168.0768 C.ar    1  UNL1        0.1185
     15 N         140.0382  139.8229  169.4632 N.ar    1  UNL1       -0.2121
     16 C         141.0559  140.9128  169.6257 C.ar    1  UNL1        0.2062
     17 C         141.8666  141.1856  170.8578 C.3     1  UNL1        0.0950
     18 O         141.1205  141.6820  168.3395 O.2     1  UNL1       -0.4384
     19 C         140.1427  141.0676  167.3823 C.ar    1  UNL1        0.1644
     20 C         139.7750  141.4058  165.9679 C.ar    1  UNL1        0.0392
     21 N         139.3842  138.4496  158.4944 N.pl3   1  UNL1       -0.2816
     22 H         138.6975  137.8739  158.0867 H       1  UNL1        0.1551
     23 C         143.1642  139.3855  156.2392 C.ar    1  UNL1        0.0565
     24 C         142.9488  138.0132  156.8051 C.ar    1  UNL1        0.0060
     25 C         141.6887  137.7011  157.5569 C.ar    1  UNL1        0.0179
     26 C         140.6442  138.7615  157.7427 C.ar    1  UNL1        0.0849
     27 C         140.8596  140.1339  157.1767 C.ar    1  UNL1        0.1522
     28 C         142.1196  140.4459  156.4250 C.ar    1  UNL1        0.0427
     29 C         145.7311  141.1860  153.8062 C.3     1  UNL1        0.1109
     30 N         144.4712  140.8739  154.5580 N.am    1  UNL1       -0.2992
     31 C         144.4242  139.6975  155.4874 C.2     1  UNL1        0.2460
     32 O         145.6371  138.8332  155.6652 O.2     1  UNL1       -0.2701
     33 H         143.6751  141.4412  154.4414 H       1  UNL1        0.1498
     34 O         139.8151  141.1943  157.3626 O.3     1  UNL1       -0.4702
     35 C         140.1849  142.5120  157.9764 C.3     1  UNL1        0.2525
     36 O         140.1059  138.1822  163.6332 O.3     1  UNL1       -0.4639
     37 C         141.4882  138.5207  164.1075 C.3     1  UNL1        0.1675
     38 C         142.6063  139.0501  163.2593 C.3     1  UNL1        0.0436
     39 C         143.8041  139.2458  164.1408 C.3     1  UNL1        0.0038
     40 C         143.4263  138.8371  165.5338 C.3     1  UNL1        0.0038
     41 C         141.9950  138.3890  165.5132 C.3     1  UNL1        0.0436
@<TRIPOS>BOND
     1    29    30    1
     2    30    31   am
     3    31    32    2
     4    31    23    1
     5    23    24   ar
     6    24    25   ar
     7    25    26   ar
     8    26    21    1
     9    21     1    1
    10     1     2   ar
    11     2     3   ar
    12     3    36    1
    13    36    37    1
    14    37    38    1
    15    38    39    1
    16    39    40    1
    17    40    41    1
    18     3     4   ar
    19     4     5   ar
    20     5    11    1
    21    11    12   ar
    22    12    13   ar
    23    13    14   ar
    24    14    15   ar
    25    15    16   ar
    26    16    17    1
    27    16    18   ar
    28    18    19   ar
    29    19    20   ar
    30     5     6   ar
    31     6     7   ar
    32     7     8   ar
    33     8     9   ar
    34    26    27   ar
    35    27    34    1
    36    34    35    1
    37    27    28   ar
    38    28    23   ar
    39     9     1   ar
    40    41    37    1
    41     8     4    1
    42    20    11   ar
    43    19    14   ar
    44    30    33    1
    45    21    22    1
    46     9    10    1
@<TRIPOS>MOLECULE
*****
 41 46 0 0 0
SMALL
GASTEIGER

@<TRIPOS>ATOM
      1 C         142.7598  141.3307  160.0416 C.ar    1  UNL1        0.2020
      2 N         141.6578  141.0964  161.0319 N.ar    1  UNL1       -0.1802
      3 C         141.9631  141.0647  162.5002 C.ar    1  UNL1        0.2299
      4 C         143.3703  141.2675  162.9782 C.ar    1  UNL1        0.0886
      5 C         143.9702  141.2891  164.3529 C.ar    1  UNL1        0.0267
      6 C         145.4429  141.5367  164.2122 C.ar    1  UNL1        0.1007
      7 N         145.7532  141.6683  162.7506 N.ar    1  UNL1       -0.2267
      8 C         144.4724  141.5019  161.9879 C.ar    1  UNL1        0.1471
      9 N         144.1671  141.5335  160.5197 N.ar    1  UNL1       -0.3117
     10 H         144.8904  141.6873  159.8697 H       1  UNL1        0.1700
     11 C         143.2276  141.0967  165.6419 C.ar    1  UNL1        0.0049
     12 C         143.1957  139.7466  166.2948 C.ar    1  UNL1        0.0018
     13 C         142.4531  139.5543  167.5839 C.ar    1  UNL1        0.0223
     14 C         141.7424  140.7120  168.2200 C.ar    1  UNL1        0.1185
     15 N         140.9346  140.8249  169.4788 N.ar    1  UNL1       -0.2121
     16 C         140.4671  142.2447  169.6039 C.ar    1  UNL1        0.2062
     17 C         139.6281  142.8020  170.7152 C.3     1  UNL1        0.0950
     18 O         140.9861  143.0093  168.4223 O.2     1  UNL1       -0.4384
     19 C         141.7742  142.0621  167.5670 C.ar    1  UNL1        0.1644
     20 C         142.5168  142.2543  166.2780 C.ar    1  UNL1        0.0392
     21 N         142.4546  141.3624  158.5734 N.pl3   1  UNL1       -0.2816
     22 H         142.4946  142.2137  158.0805 H       1  UNL1        0.1551
     23 C         141.3561  137.5659  156.4215 C.ar    1  UNL1        0.0565
     24 C         140.7340  138.8676  156.0110 C.ar    1  UNL1        0.0060
     25 C         141.1001  140.1331  156.7283 C.ar    1  UNL1        0.0179
     26 C         142.0884  140.0969  157.8561 C.ar    1  UNL1        0.0849
     27 C         142.7106  138.7952  158.2666 C.ar    1  UNL1        0.1522
     28 C         142.3444  137.5297  157.5493 C.ar    1  UNL1        0.0427
     29 C         141.3608  133.7632  155.2862 C.3     1  UNL1        0.1109
     30 N         141.7269  135.0286  156.0034 N.am    1  UNL1       -0.2992
     31 C         140.9900  136.3004  155.7042 C.2     1  UNL1        0.2460
     32 O         139.8870  136.3067  154.6877 O.2     1  UNL1       -0.2701
     33 H         142.4508  135.0245  156.6706 H       1  UNL1        0.1498
     34 O         143.6989  138.7589  159.3944 O.3     1  UNL1       -0.4702
     35 C         143.4549  137.8693  160.5771 C.3     1  UNL1        0.2525
     36 O         140.8611  140.8304  163.4905 O.3     1  UNL1       -0.4639
     37 C         140.5627  139.4390  163.9652 C.3     1  UNL1        0.1675
     38 C         141.3384  138.2033  163.6170 C.3     1  UNL1        0.0436
     39 C         140.6913  137.0398  164.3080 C.3     1  UNL1        0.0038
     40 C         139.5157  137.5564  165.0833 C.3     1  UNL1        0.0038
     41 C         139.4362  139.0393  164.8714 C.3     1  UNL1        0.0436
@<TRIPOS>BOND
     1    29    30    1
     2    30    31   am
     3    31    32    2
     4    31    23    1
     5    23    24   ar
     6    24    25   ar
     7    25    26   ar
     8    26    21    1
     9    21     1    1
    10     1     2   ar
    11     2     3   ar
    12     3    36    1
    13    36    37    1
    14    37    38    1
    15    38    39    1
    16    39    40    1
    17    40    41    1
    18     3     4   ar
    19     4     5   ar
    20     5    11    1
    21    11    12   ar
    22    12    13   ar
    23    13    14   ar
    24    14    15   ar
    25    15    16   ar
    26    16    17    1
    27    16    18   ar
    28    18    19   ar
    29    19    20   ar
    30     5     6   ar
    31     6     7   ar
    32     7     8   ar
    33     8     9   ar
    34    26    27   ar
    35    27    34    1
    36    34    35    1
    37    27    28   ar
    38    28    23   ar
    39     9     1   ar
    40    41    37    1
    41     8     4    1
    42    20    11   ar
    43    19    14   ar
    44    30    33    1
    45    21    22    1
    46     9    10    1
@<TRIPOS>MOLECULE
*****
 41 46 0 0 0
SMALL
GASTEIGER

@<TRIPOS>ATOM
      1 C         140.3460  142.4871  159.6004 C.ar    1  UNL1        0.2020
      2 N         141.1668  141.6627  160.5474 N.ar    1  UNL1       -0.1802
      3 C         140.8075  141.6123  162.0029 C.ar    1  UNL1        0.2299
      4 C         139.6275  142.3863  162.5114 C.ar    1  UNL1        0.0886
      5 C         139.0360  142.5289  163.8825 C.ar    1  UNL1        0.0267
      6 C         137.8496  143.4413  163.7829 C.ar    1  UNL1        0.1007
      7 N         137.7080  143.8627  162.3503 N.ar    1  UNL1       -0.2267
      8 C         138.8068  143.2106  161.5645 C.ar    1  UNL1        0.1471
      9 N         139.1660  143.2610  160.1090 N.ar    1  UNL1       -0.3117
     10 H         138.6272  143.8021  159.4875 H       1  UNL1        0.1700
     11 C         139.5420  141.8739  165.1335 C.ar    1  UNL1        0.0049
     12 C         138.8634  140.6461  165.6645 C.ar    1  UNL1        0.0018
     13 C         139.3695  139.9912  166.9155 C.ar    1  UNL1        0.0223
     14 C         140.5541  140.5641  167.6355 C.ar    1  UNL1        0.1185
     15 N         141.2728  140.1397  168.8818 N.ar    1  UNL1       -0.2121
     16 C         142.3955  141.1051  169.1212 C.ar    1  UNL1        0.2062
     17 C         143.3716  141.0578  170.2590 C.3     1  UNL1        0.0950
     18 O         142.3708  142.1263  168.0227 O.2     1  UNL1       -0.4384
     19 C         141.2327  141.7919  167.1045 C.ar    1  UNL1        0.1644
     20 C         140.7266  142.4468  165.8535 C.ar    1  UNL1        0.0392
     21 N         140.7052  142.5375  158.1450 N.pl3   1  UNL1       -0.2816
     22 H         141.0667  141.7376  157.6992 H       1  UNL1        0.1551
     23 C         140.1302  146.3448  155.8162 C.ar    1  UNL1        0.0565
     24 C         141.2184  146.2516  156.8444 C.ar    1  UNL1        0.0060
     25 C         141.4101  144.9825  157.6207 C.ar    1  UNL1        0.0179
     26 C         140.5135  143.8066  157.3688 C.ar    1  UNL1        0.0849
     27 C         139.4253  143.8998  156.3405 C.ar    1  UNL1        0.1522
     28 C         139.2337  145.1689  155.5643 C.ar    1  UNL1        0.0427
     29 C         139.1089  150.0730  154.9173 C.3     1  UNL1        0.1109
     30 N         139.3006  148.8039  155.6936 N.am    1  UNL1       -0.2992
     31 C         139.9385  147.6140  155.0399 C.2     1  UNL1        0.2460
     32 O         140.3848  147.6933  153.6101 O.2     1  UNL1       -0.2701
     33 H         139.0077  148.7518  156.6320 H       1  UNL1        0.1498
     34 O         138.5288  142.7239  156.0886 O.3     1  UNL1       -0.4702
     35 C         137.3400  142.4844  156.9714 C.3     1  UNL1        0.2525
     36 O         141.6283  140.7880  162.9499 O.3     1  UNL1       -0.4639
     37 C         141.1713  139.4125  163.3367 C.3     1  UNL1        0.1675
     38 C         140.0115  138.6694  162.7430 C.3     1  UNL1        0.0436
     39 C         139.9173  137.3364  163.4244 C.3     1  UNL1        0.0038
     40 C         141.0190  137.2557  164.4393 C.3     1  UNL1        0.0038
     41 C         141.7940  138.5389  164.3850 C.3     1  UNL1        0.0436
@<TRIPOS>BOND
     1    29    30    1
     2    30    31   am
     3    31    32    2
     4    31    23    1
     5    23    24   ar
     6    24    25   ar
     7    25    26   ar
     8    26    21    1
     9    21     1    1
    10     1     2   ar
    11     2     3   ar
    12     3    36    1
    13    36    37    1
    14    37    38    1
    15    38    39    1
    16    39    40    1
    17    40    41    1
    18     3     4   ar
    19     4     5   ar
    20     5    11    1
    21    11    12   ar
    22    12    13   ar
    23    13    14   ar
    24    14    15   ar
    25    15    16   ar
    26    16    17    1
    27    16    18   ar
    28    18    19   ar
    29    19    20   ar
    30     5     6   ar
    31     6     7   ar
    32     7     8   ar
    33     8     9   ar
    34    26    27   ar
    35    27    34    1
    36    34    35    1
    37    27    28   ar
    38    28    23   ar
    39     9     1   ar
    40    41    37    1
    41     8     4    1
    42    20    11   ar
    43    19    14   ar
    44    30    33    1
    45    21    22    1
    46     9    10    1
@<TRIPOS>MOLECULE
*****
 41 46 0 0 0
SMALL
GASTEIGER

@<TRIPOS>ATOM
      1 C         139.9173  144.5673  160.7617 C.ar    1  UNL1        0.2020
      2 N         140.9638  144.4459  161.8295 N.ar    1  UNL1       -0.1802
      3 C         140.8329  143.3949  162.8919 C.ar    1  UNL1        0.2299
      4 C         139.6557  142.4654  162.8863 C.ar    1  UNL1        0.0886
      5 C         139.2607  141.3404  163.7965 C.ar    1  UNL1        0.0267
      6 C         137.9702  140.7666  163.2913 C.ar    1  UNL1        0.1007
      7 N         137.5676  141.5369  162.0688 N.ar    1  UNL1       -0.2267
      8 C         138.6092  142.5868  161.8185 C.ar    1  UNL1        0.1471
      9 N         138.7400  143.6377  160.7562 N.ar    1  UNL1       -0.3117
     10 H         138.0532  143.7174  160.0554 H       1  UNL1        0.1700
     11 C         140.0226  140.8717  165.0006 C.ar    1  UNL1        0.0049
     12 C         140.9866  139.7288  164.8801 C.ar    1  UNL1        0.0018
     13 C         141.7485  139.2601  166.0842 C.ar    1  UNL1        0.0223
     14 C         141.5463  139.9342  167.4089 C.ar    1  UNL1        0.1185
     15 N         142.1515  139.6938  168.7601 N.ar    1  UNL1       -0.2121
     16 C         141.5616  140.6880  169.7158 C.ar    1  UNL1        0.2062
     17 C         141.8847  140.8066  171.1757 C.3     1  UNL1        0.0950
     18 O         140.5917  141.5430  168.9552 O.2     1  UNL1       -0.4384
     19 C         140.5823  141.0770  167.5294 C.ar    1  UNL1        0.1644
     20 C         139.8205  141.5458  166.3253 C.ar    1  UNL1        0.0392
     21 N         140.0482  145.6182  159.6995 N.pl3   1  UNL1       -0.2816
     22 H         139.6437  146.5058  159.8327 H       1  UNL1        0.1551
     23 C         142.2894  144.7136  155.9036 C.ar    1  UNL1        0.0565
     24 C         142.6156  143.9673  157.1632 C.ar    1  UNL1        0.0060
     25 C         141.8686  144.2688  158.4285 C.ar    1  UNL1        0.0179
     26 C         140.7952  145.3166  158.4342 C.ar    1  UNL1        0.0849
     27 C         140.4690  146.0629  157.1745 C.ar    1  UNL1        0.1522
     28 C         141.2161  145.7614  155.9093 C.ar    1  UNL1        0.0427
     29 C         145.2759  143.9616  153.4005 C.3     1  UNL1        0.1109
     30 N         144.5288  144.2631  154.6658 N.am    1  UNL1       -0.2992
     31 C         143.0365  144.4121  154.6382 C.2     1  UNL1        0.2460
     32 O         142.2912  144.2596  153.3455 O.2     1  UNL1       -0.2701
     33 H         145.0179  144.3632  155.5143 H       1  UNL1        0.1498
     34 O         139.3957  147.1108  157.1802 O.3     1  UNL1       -0.4702
     35 C         138.9340  147.7185  155.8890 C.3     1  UNL1        0.2525
     36 O         141.8794  143.2735  163.9597 O.3     1  UNL1       -0.4639
     37 C         143.1448  142.5156  163.6869 C.3     1  UNL1        0.1675
     38 C         143.3711  141.5548  162.5575 C.3     1  UNL1        0.0436
     39 C         144.7723  141.0309  162.6683 C.3     1  UNL1        0.0038
     40 C         145.4120  141.6680  163.8662 C.3     1  UNL1        0.0038
     41 C         144.4062  142.5856  164.4957 C.3     1  UNL1        0.0436
@<TRIPOS>BOND
     1    29    30    1
     2    30    31   am
     3    31    32    2
     4    31    23    1
     5    23    24   ar
     6    24    25   ar
     7    25    26   ar
     8    26    21    1
     9    21     1    1
    10     1     2   ar
    11     2     3   ar
    12     3    36    1
    13    36    37    1
    14    37    38    1
    15    38    39    1
    16    39    40    1
    17    40    41    1
    18     3     4   ar
    19     4     5   ar
    20     5    11    1
    21    11    12   ar
    22    12    13   ar
    23    13    14   ar
    24    14    15   ar
    25    15    16   ar
    26    16    17    1
    27    16    18   ar
    28    18    19   ar
    29    19    20   ar
    30     5     6   ar
    31     6     7   ar
    32     7     8   ar
    33     8     9   ar
    34    26    27   ar
    35    27    34    1
    36    34    35    1
    37    27    28   ar
    38    28    23   ar
    39     9     1   ar
    40    41    37    1
    41     8     4    1
    42    20    11   ar
    43    19    14   ar
    44    30    33    1
    45    21    22    1
    46     9    10    1
@<TRIPOS>MOLECULE
*****
 41 46 0 0 0
SMALL
GASTEIGER

@<TRIPOS>ATOM
      1 C         141.1970  144.9741  160.8168 C.ar    1  UNL1        0.2020
      2 N         142.0209  144.1506  161.7618 N.ar    1  UNL1       -0.1802
      3 C         141.3748  143.5008  162.9494 C.ar    1  UNL1        0.2299
      4 C         139.9048  143.6744  163.1920 C.ar    1  UNL1        0.0886
      5 C         138.9974  143.1585  164.2693 C.ar    1  UNL1        0.0267
      6 C         137.6127  143.6631  163.9901 C.ar    1  UNL1        0.1007
      7 N         137.6643  144.4909  162.7403 N.ar    1  UNL1       -0.2267
      8 C         139.0808  144.4979  162.2470 C.ar    1  UNL1        0.1471
      9 N         139.7269  145.1477  161.0594 N.ar    1  UNL1       -0.3117
     10 H         139.1861  145.6882  160.4392 H       1  UNL1        0.1700
     11 C         139.4035  142.2904  165.4232 C.ar    1  UNL1        0.0049
     12 C         139.0269  140.8385  165.4384 C.ar    1  UNL1        0.0018
     13 C         139.4331  139.9705  166.5923 C.ar    1  UNL1        0.0223
     14 C         140.2158  140.5542  167.7310 C.ar    1  UNL1        0.1185
     15 N         140.7522  139.9495  168.9945 N.ar    1  UNL1       -0.2121
     16 C         141.4602  141.0275  169.7602 C.ar    1  UNL1        0.2062
     17 C         142.1466  140.8635  171.0838 C.3     1  UNL1        0.0950
     18 O         141.3615  142.2986  168.9699 O.2     1  UNL1       -0.4384
     19 C         140.5923  142.0061  167.7158 C.ar    1  UNL1        0.1644
     20 C         140.1862  142.8742  166.5618 C.ar    1  UNL1        0.0392
     21 N         141.8430  145.6239  159.6293 N.pl3   1  UNL1       -0.2816
     22 H         142.5525  146.2938  159.7601 H       1  UNL1        0.1551
     23 C         140.5386  144.5108  155.4688 C.ar    1  UNL1        0.0565
     24 C         139.8166  145.5918  156.2172 C.ar    1  UNL1        0.0060
     25 C         140.2514  145.9628  157.6041 C.ar    1  UNL1        0.0179
     26 C         141.4082  145.2529  158.2425 C.ar    1  UNL1        0.0849
     27 C         142.1303  144.1719  157.4940 C.ar    1  UNL1        0.1522
     28 C         141.6955  143.8009  156.1072 C.ar    1  UNL1        0.0427
     29 C         138.8838  142.5113  152.4666 C.3     1  UNL1        0.1109
     30 N         139.3186  142.8823  153.8533 N.am    1  UNL1       -0.2992
     31 C         140.1038  144.1398  154.0819 C.2     1  UNL1        0.2460
     32 O         140.4542  145.0262  152.9237 O.2     1  UNL1       -0.2701
     33 H         139.0886  142.3006  154.6135 H       1  UNL1        0.1498
     34 O         143.2872  143.4619  158.1324 O.3     1  UNL1       -0.4702
     35 C         143.0660  142.1655  158.8538 C.3     1  UNL1        0.2525
     36 O         142.1987  142.6773  163.8944 O.3     1  UNL1       -0.4639
     37 C         142.1760  141.1804  163.8003 C.3     1  UNL1        0.1675
     38 C         141.5849  140.3762  162.6805 C.3     1  UNL1        0.0436
     39 C         141.7840  138.9237  162.9975 C.3     1  UNL1        0.0038
     40 C         142.4983  138.8301  164.3133 C.3     1  UNL1        0.0038
     41 C         142.7405  140.2248  164.8094 C.3     1  UNL1        0.0436
@<TRIPOS>BOND
     1    29    30    1
     2    30    31   am
     3    31    32    2
     4    31    23    1
     5    23    24   ar
     6    24    25   ar
     7    25    26   ar
     8    26    21    1
     9    21     1    1
    10     1     2   ar
    11     2     3   ar
    12     3    36    1
    13    36    37    1
    14    37    38    1
    15    38    39    1
    16    39    40    1
    17    40    41    1
    18     3     4   ar
    19     4     5   ar
    20     5    11    1
    21    11    12   ar
    22    12    13   ar
    23    13    14   ar
    24    14    15   ar
    25    15    16   ar
    26    16    17    1
    27    16    18   ar
    28    18    19   ar
    29    19    20   ar
    30     5     6   ar
    31     6     7   ar
    32     7     8   ar
    33     8     9   ar
    34    26    27   ar
    35    27    34    1
    36    34    35    1
    37    27    28   ar
    38    28    23   ar
    39     9     1   ar
    40    41    37    1
    41     8     4    1
    42    20    11   ar
    43    19    14   ar
    44    30    33    1
    45    21    22    1
    46     9    10    1
@<TRIPOS>MOLECULE
*****
 41 46 0 0 0
SMALL
GASTEIGER

@<TRIPOS>ATOM
      1 C         139.4750  138.7063  160.3397 C.ar    1  UNL1        0.2020
      2 N         140.9179  138.9271  160.6848 N.ar    1  UNL1       -0.1802
      3 C         141.8095  139.6752  159.7385 C.ar    1  UNL1        0.2299
      4 C         141.2581  140.2025  158.4470 C.ar    1  UNL1        0.0886
      5 C         141.8907  140.9710  157.3249 C.ar    1  UNL1        0.0267
      6 C         140.8388  141.2253  156.2863 C.ar    1  UNL1        0.1007
      7 N         139.5560  140.6138  156.7665 N.ar    1  UNL1       -0.2267
      8 C         139.8151  139.9817  158.1019 C.ar    1  UNL1        0.1471
      9 N         138.9236  139.2337  159.0482 N.ar    1  UNL1       -0.3117
     10 H         137.9765  139.0888  158.8216 H       1  UNL1        0.1700
     11 C         143.3237  141.4085  157.2539 C.ar    1  UNL1        0.0049
     12 C         143.8702  142.3566  158.2799 C.ar    1  UNL1        0.0018
     13 C         145.3032  142.7940  158.2088 C.ar    1  UNL1        0.0223
     14 C         146.1898  142.2835  157.1119 C.ar    1  UNL1        0.1185
     15 N         147.6323  142.5363  156.7876 N.ar    1  UNL1       -0.2121
     16 C         147.9775  141.7446  155.5613 C.ar    1  UNL1        0.2062
     17 C         149.3166  141.7023  154.8870 C.3     1  UNL1        0.0950
     18 O         146.7482  141.0024  155.1276 O.2     1  UNL1       -0.4384
     19 C         145.6434  141.3354  156.0860 C.ar    1  UNL1        0.1644
     20 C         144.2103  140.8980  156.1570 C.ar    1  UNL1        0.0392
     21 N         138.5834  137.9583  161.2860 N.pl3   1  UNL1       -0.2816
     22 H         137.9905  137.2491  160.9471 H       1  UNL1        0.1551
     23 C         138.6188  138.9555  165.6739 C.ar    1  UNL1        0.0565
     24 C         139.1654  137.6419  165.1990 C.ar    1  UNL1        0.0060
     25 C         139.1537  137.3094  163.7362 C.ar    1  UNL1        0.0179
     26 C         138.5952  138.2906  162.7486 C.ar    1  UNL1        0.0849
     27 C         138.0486  139.6043  163.2237 C.ar    1  UNL1        0.1522
     28 C         138.0604  139.9367  164.6863 C.ar    1  UNL1        0.0427
     29 C         139.6314  140.6129  169.1348 C.3     1  UNL1        0.1109
     30 N         139.6196  140.2805  167.6722 N.am    1  UNL1       -0.2992
     31 C         138.6306  139.2879  167.1367 C.2     1  UNL1        0.2460
     32 O         137.6535  138.6278  168.0637 O.2     1  UNL1       -0.2701
     33 H         140.2609  140.7137  167.0637 H       1  UNL1        0.1498
     34 O         137.4902  140.5855  162.2361 O.3     1  UNL1       -0.4702
     35 C         138.2355  141.8515  161.9334 C.3     1  UNL1        0.2525
     36 O         143.2524  139.8960  160.0836 O.3     1  UNL1       -0.4639
     37 C         143.6815  139.9415  161.5203 C.3     1  UNL1        0.1675
     38 C         143.9137  141.1811  162.3322 C.3     1  UNL1        0.0436
     39 C         144.3294  140.7611  163.7109 C.3     1  UNL1        0.0038
     40 C         144.3540  139.2618  163.7510 C.3     1  UNL1        0.0038
     41 C         143.9536  138.7553  162.3971 C.3     1  UNL1        0.0436
@<TRIPOS>BOND
     1    29    30    1
     2    30    31   am
     3    31    32    2
     4    31    23    1
     5    23    24   ar
     6    24    25   ar
     7    25    26   ar
     8    26    21    1
     9    21     1    1
    10     1     2   ar
    11     2     3   ar
    12     3    36    1
    13    36    37    1
    14    37    38    1
    15    38    39    1
    16    39    40    1
    17    40    41    1
    18     3     4   ar
    19     4     5   ar
    20     5    11    1
    21    11    12   ar
    22    12    13   ar
    23    13    14   ar
    24    14    15   ar
    25    15    16   ar
    26    16    17    1
    27    16    18   ar
    28    18    19   ar
    29    19    20   ar
    30     5     6   ar
    31     6     7   ar
    32     7     8   ar
    33     8     9   ar
    34    26    27   ar
    35    27    34    1
    36    34    35    1
    37    27    28   ar
    38    28    23   ar
    39     9     1   ar
    40    41    37    1
    41     8     4    1
    42    20    11   ar
    43    19    14   ar
    44    30    33    1
    45    21    22    1
    46     9    10    1
