@<TRIPOS>MOLECULE
*****
 35 39 0 0 0
SMALL
GASTEIGER

@<TRIPOS>ATOM
      1 C         139.4741  139.0293  164.9806 C.2     1  UNL1        0.2264
      2 O         138.4015  138.2374  165.6681 O.2     1  UNL1       -0.2748
      3 N         139.5803  139.0072  163.4845 N.am    1  UNL1       -0.2767
      4 C         138.6140  138.1934  162.6759 C.3     1  UNL1        0.1107
      5 C         138.7202  138.1714  161.1798 C.3     1  UNL1        0.0943
      6 N         139.7928  138.9632  160.4923 N.3     1  UNL1       -0.2619
      7 C         140.7591  139.7771  161.3010 C.3     1  UNL1        0.0943
      8 C         140.6528  139.7991  162.7970 C.3     1  UNL1        0.1107
      9 C         140.4403  139.8431  165.7892 C.3     1  UNL1        0.0940
     10 C         140.0703  141.2291  166.2276 C.3     1  UNL1        0.0536
     11 C         138.9989  144.3470  163.1648 C.ar    1  UNL1        0.1387
     12 C         137.9227  143.5123  163.7935 C.ar    1  UNL1        0.0366
     13 C         138.2799  142.4729  164.8144 C.ar    1  UNL1       -0.0008
     14 C         139.7132  142.2684  165.2067 C.ar    1  UNL1       -0.0177
     15 C         140.7893  143.1031  164.5780 C.ar    1  UNL1       -0.0008
     16 C         140.4321  144.1424  163.5571 C.ar    1  UNL1        0.0366
     17 C         139.6841  146.3491  161.6575 C.3     1  UNL1        0.2525
     18 O         138.6417  145.3863  162.1439 O.3     1  UNL1       -0.4714
     19 C         140.0575  141.5757  167.6870 C.ar    1  UNL1       -0.0179
     20 C         140.4731  142.9452  168.1362 C.ar    1  UNL1       -0.0039
     21 C         140.4603  143.2919  169.5955 C.ar    1  UNL1       -0.0003
     22 C         140.0317  142.2692  170.6056 C.ar    1  UNL1       -0.0000
     23 C         139.6161  140.8997  170.1563 C.ar    1  UNL1       -0.0003
     24 C         139.6289  140.5530  168.6971 C.ar    1  UNL1       -0.0039
     25 C         139.8990  138.9412  158.9963 C.3     1  UNL1        0.1588
     26 C         139.2444  140.0175  158.1820 C.ar    1  UNL1        0.2221
     27 N         137.8623  139.9665  157.6014 N.ar    1  UNL1       -0.2109
     28 C         137.6207  141.2513  156.8659 C.ar    1  UNL1        0.1186
     29 C         136.4374  141.7608  156.0977 C.ar    1  UNL1        0.0220
     30 C         136.4870  143.1154  155.4555 C.ar    1  UNL1       -0.0025
     31 C         137.7198  143.9606  155.5815 C.ar    1  UNL1       -0.0187
     32 C         137.7693  145.3153  154.9393 C.3     1  UNL1        0.0311
     33 C         138.9031  143.4510  156.3497 C.ar    1  UNL1        0.0349
     34 C         138.8535  142.0964  156.9919 C.ar    1  UNL1        0.1641
     35 O         139.8570  141.3339  157.8053 O.2     1  UNL1       -0.4370
@<TRIPOS>BOND
     1    17    18    1
     2    18    11    1
     3    11    12   ar
     4    12    13   ar
     5    13    14   ar
     6    14    10    1
     7    10     9    1
     8     9     1    1
     9     1     2    2
    10     1     3   am
    11     3     4    1
    12     4     5    1
    13     5     6    1
    14     6    25    1
    15    25    26    1
    16    26    27   ar
    17    27    28   ar
    18    28    29   ar
    19    29    30   ar
    20    30    31   ar
    21    31    32    1
    22    31    33   ar
    23    33    34   ar
    24    34    35   ar
    25     6     7    1
    26     7     8    1
    27    10    19    1
    28    19    20   ar
    29    20    21   ar
    30    21    22   ar
    31    22    23   ar
    32    23    24   ar
    33    14    15   ar
    34    15    16   ar
    35    16    11   ar
    36     8     3    1
    37    24    19   ar
    38    35    26   ar
    39    34    28   ar
@<TRIPOS>MOLECULE
*****
 35 39 0 0 0
SMALL
GASTEIGER

@<TRIPOS>ATOM
      1 C         139.7859  138.9196  164.2981 C.2     1  UNL1        0.2264
      2 O         138.5960  138.0981  164.6974 O.2     1  UNL1       -0.2748
      3 N         140.1751  139.0231  162.8532 N.am    1  UNL1       -0.2767
      4 C         139.3744  138.3052  161.8075 C.3     1  UNL1        0.1107
      5 C         139.7636  138.4086  160.3625 C.3     1  UNL1        0.0943
      6 N         140.9535  139.2302  159.9633 N.3     1  UNL1       -0.2619
      7 C         141.7541  139.9482  161.0090 C.3     1  UNL1        0.0943
      8 C         141.3649  139.8447  162.4539 C.3     1  UNL1        0.1107
      9 C         140.5865  139.6376  165.3438 C.3     1  UNL1        0.0940
     10 C         140.1175  140.9619  165.8694 C.3     1  UNL1        0.0536
     11 C         138.9735  144.2411  163.0080 C.ar    1  UNL1        0.1387
     12 C         137.9091  143.4056  163.6554 C.ar    1  UNL1        0.0366
     13 C         138.2905  142.3125  164.6092 C.ar    1  UNL1       -0.0008
     14 C         139.7361  142.0550  164.9156 C.ar    1  UNL1       -0.0177
     15 C         140.8004  142.8905  164.2682 C.ar    1  UNL1       -0.0008
     16 C         140.4190  143.9836  163.3144 C.ar    1  UNL1        0.0366
     17 C         139.5954  146.3832  161.6758 C.3     1  UNL1        0.2525
     18 O         138.5921  145.3342  162.0542 O.3     1  UNL1       -0.4714
     19 C         140.0297  141.1931  167.3490 C.ar    1  UNL1       -0.0179
     20 C         140.5150  142.4853  167.9362 C.ar    1  UNL1       -0.0039
     21 C         140.4273  142.7165  169.4156 C.ar    1  UNL1       -0.0003
     22 C         139.8543  141.6556  170.3078 C.ar    1  UNL1       -0.0000
     23 C         139.3691  140.3634  169.7206 C.ar    1  UNL1       -0.0003
     24 C         139.4568  140.1322  168.2412 C.ar    1  UNL1       -0.0039
     25 C         141.3427  139.3337  158.5184 C.3     1  UNL1        0.1588
     26 C         141.6595  138.0935  157.7363 C.ar    1  UNL1        0.2221
     27 N         142.9262  137.2950  157.8245 N.ar    1  UNL1       -0.2109
     28 C         142.8147  136.1421  156.8713 C.ar    1  UNL1        0.1186
     29 C         143.7569  135.0252  156.5326 C.ar    1  UNL1        0.0220
     30 C         143.3633  133.9942  155.5167 C.ar    1  UNL1       -0.0025
     31 C         142.0277  134.0802  154.8394 C.ar    1  UNL1       -0.0187
     32 C         141.6342  133.0492  153.8234 C.3     1  UNL1        0.0311
     33 C         141.0856  135.1972  155.1781 C.ar    1  UNL1        0.0349
     34 C         141.4791  136.2281  156.1941 C.ar    1  UNL1        0.1641
     35 O         140.7651  137.4342  156.7286 O.2     1  UNL1       -0.4370
@<TRIPOS>BOND
     1    17    18    1
     2    18    11    1
     3    11    12   ar
     4    12    13   ar
     5    13    14   ar
     6    14    10    1
     7    10     9    1
     8     9     1    1
     9     1     2    2
    10     1     3   am
    11     3     4    1
    12     4     5    1
    13     5     6    1
    14     6    25    1
    15    25    26    1
    16    26    27   ar
    17    27    28   ar
    18    28    29   ar
    19    29    30   ar
    20    30    31   ar
    21    31    32    1
    22    31    33   ar
    23    33    34   ar
    24    34    35   ar
    25     6     7    1
    26     7     8    1
    27    10    19    1
    28    19    20   ar
    29    20    21   ar
    30    21    22   ar
    31    22    23   ar
    32    23    24   ar
    33    14    15   ar
    34    15    16   ar
    35    16    11   ar
    36     8     3    1
    37    24    19   ar
    38    35    26   ar
    39    34    28   ar
@<TRIPOS>MOLECULE
*****
 35 39 0 0 0
SMALL
GASTEIGER

@<TRIPOS>ATOM
      1 C         140.7749  138.3357  163.8056 C.2     1  UNL1        0.2264
      2 O         139.3690  138.5362  164.2886 O.2     1  UNL1       -0.2748
      3 N         141.0637  138.2937  162.3342 N.am    1  UNL1       -0.2767
      4 C         139.9466  138.4523  161.3459 C.3     1  UNL1        0.1107
      5 C         140.2354  138.4103  159.8745 C.3     1  UNL1        0.0943
      6 N         141.6413  138.2097  159.3916 N.3     1  UNL1       -0.2619
      7 C         142.7584  138.0512  160.3800 C.3     1  UNL1        0.0943
      8 C         142.4696  138.0931  161.8513 C.3     1  UNL1        0.1107
      9 C         141.8920  138.1771  164.7940 C.3     1  UNL1        0.0940
     10 C         142.3712  139.3610  165.5804 C.3     1  UNL1        0.0536
     11 C         140.7854  140.0997  169.7264 C.ar    1  UNL1        0.1387
     12 C         142.1561  139.5195  169.5401 C.ar    1  UNL1        0.0366
     13 C         142.6847  139.2733  168.1581 C.ar    1  UNL1       -0.0008
     14 C         141.8426  139.6073  166.9624 C.ar    1  UNL1       -0.0177
     15 C         140.4720  140.1874  167.1488 C.ar    1  UNL1       -0.0008
     16 C         139.9434  140.4337  168.5308 C.ar    1  UNL1        0.0366
     17 C         140.4510  141.6838  171.7584 C.3     1  UNL1        0.2525
     18 O         140.2568  140.3459  171.1084 O.3     1  UNL1       -0.4714
     19 C         143.3792  140.2989  164.9848 C.ar    1  UNL1       -0.0179
     20 C         144.5397  139.7558  164.2048 C.ar    1  UNL1       -0.0039
     21 C         145.5476  140.6936  163.6093 C.ar    1  UNL1       -0.0003
     22 C         145.3950  142.1743  163.7937 C.ar    1  UNL1       -0.0000
     23 C         144.2345  142.7173  164.5737 C.ar    1  UNL1       -0.0003
     24 C         143.2266  141.7796  165.1693 C.ar    1  UNL1       -0.0039
     25 C         141.9301  138.1678  157.9203 C.3     1  UNL1        0.1588
     26 C         142.2474  136.8612  157.2552 C.ar    1  UNL1        0.2221
     27 N         141.6308  136.3435  155.9896 N.ar    1  UNL1       -0.2109
     28 C         142.2393  135.0053  155.6911 C.ar    1  UNL1        0.1186
     29 C         142.0177  134.0285  154.5746 C.ar    1  UNL1        0.0220
     30 C         142.7888  132.7424  154.5392 C.ar    1  UNL1       -0.0025
     31 C         143.7815  132.4331  155.6204 C.ar    1  UNL1       -0.0187
     32 C         144.5526  131.1469  155.5850 C.3     1  UNL1        0.0311
     33 C         144.0031  133.4099  156.7369 C.ar    1  UNL1        0.0349
     34 C         143.2320  134.6960  156.7723 C.ar    1  UNL1        0.1641
     35 O         143.2370  135.8430  157.7389 O.2     1  UNL1       -0.4370
@<TRIPOS>BOND
     1    17    18    1
     2    18    11    1
     3    11    12   ar
     4    12    13   ar
     5    13    14   ar
     6    14    10    1
     7    10     9    1
     8     9     1    1
     9     1     2    2
    10     1     3   am
    11     3     4    1
    12     4     5    1
    13     5     6    1
    14     6    25    1
    15    25    26    1
    16    26    27   ar
    17    27    28   ar
    18    28    29   ar
    19    29    30   ar
    20    30    31   ar
    21    31    32    1
    22    31    33   ar
    23    33    34   ar
    24    34    35   ar
    25     6     7    1
    26     7     8    1
    27    10    19    1
    28    19    20   ar
    29    20    21   ar
    30    21    22   ar
    31    22    23   ar
    32    23    24   ar
    33    14    15   ar
    34    15    16   ar
    35    16    11   ar
    36     8     3    1
    37    24    19   ar
    38    35    26   ar
    39    34    28   ar
@<TRIPOS>MOLECULE
*****
 35 39 0 0 0
SMALL
GASTEIGER

@<TRIPOS>ATOM
      1 C         142.2118  138.5702  164.3655 C.2     1  UNL1        0.2264
      2 O         143.5297  138.5390  165.0813 O.2     1  UNL1       -0.2748
      3 N         142.1716  138.5348  162.8664 N.am    1  UNL1       -0.2767
      4 C         143.4491  138.4682  162.0832 C.3     1  UNL1        0.1107
      5 C         143.4088  138.4328  160.5841 C.3     1  UNL1        0.0943
      6 N         142.0910  138.4640  159.8683 N.3     1  UNL1       -0.2619
      7 C         140.8134  138.5307  160.6516 C.3     1  UNL1        0.0943
      8 C         140.8537  138.5661  162.1506 C.3     1  UNL1        0.1107
      9 C         140.9343  138.6369  165.1487 C.3     1  UNL1        0.0940
     10 C         140.6000  139.8699  165.9347 C.3     1  UNL1        0.0536
     11 C         139.0770  143.5403  163.8232 C.ar    1  UNL1        0.1387
     12 C         140.5377  143.4080  164.1379 C.ar    1  UNL1        0.0366
     13 C         141.0453  142.1845  164.8417 C.ar    1  UNL1       -0.0008
     14 C         140.0923  141.0934  165.2309 C.ar    1  UNL1       -0.0177
     15 C         138.6318  141.2258  164.9161 C.ar    1  UNL1       -0.0008
     16 C         138.1241  142.4492  164.2123 C.ar    1  UNL1        0.0366
     17 C         139.4805  145.5426  162.2175 C.3     1  UNL1        0.2525
     18 O         138.5693  144.7638  163.1193 O.3     1  UNL1       -0.4714
     19 C         140.7734  139.8795  167.4247 C.ar    1  UNL1       -0.0179
     20 C         142.1037  139.5370  168.0271 C.ar    1  UNL1       -0.0039
     21 C         142.2772  139.5465  169.5170 C.ar    1  UNL1       -0.0003
     22 C         141.1203  139.8987  170.4044 C.ar    1  UNL1       -0.0000
     23 C         139.7900  140.2412  169.8020 C.ar    1  UNL1       -0.0003
     24 C         139.6165  140.2316  168.3121 C.ar    1  UNL1       -0.0039
     25 C         142.0507  138.4286  158.3693 C.3     1  UNL1        0.1588
     26 C         142.3057  137.1416  157.6423 C.ar    1  UNL1        0.2221
     27 N         141.5889  136.6661  156.4134 N.ar    1  UNL1       -0.2109
     28 C         142.1624  135.3347  156.0282 C.ar    1  UNL1        0.1186
     29 C         141.8476  134.3938  154.9032 C.ar    1  UNL1        0.0220
     30 C         142.6040  133.1055  154.7691 C.ar    1  UNL1       -0.0025
     31 C         143.6752  132.7581  155.7599 C.ar    1  UNL1       -0.0187
     32 C         144.4317  131.4697  155.6258 C.3     1  UNL1        0.0311
     33 C         143.9901  133.6989  156.8849 C.ar    1  UNL1        0.0349
     34 C         143.2336  134.9872  157.0190 C.ar    1  UNL1        0.1641
     35 O         143.3221  136.1040  158.0166 O.2     1  UNL1       -0.4370
@<TRIPOS>BOND
     1    17    18    1
     2    18    11    1
     3    11    12   ar
     4    12    13   ar
     5    13    14   ar
     6    14    10    1
     7    10     9    1
     8     9     1    1
     9     1     2    2
    10     1     3   am
    11     3     4    1
    12     4     5    1
    13     5     6    1
    14     6    25    1
    15    25    26    1
    16    26    27   ar
    17    27    28   ar
    18    28    29   ar
    19    29    30   ar
    20    30    31   ar
    21    31    32    1
    22    31    33   ar
    23    33    34   ar
    24    34    35   ar
    25     6     7    1
    26     7     8    1
    27    10    19    1
    28    19    20   ar
    29    20    21   ar
    30    21    22   ar
    31    22    23   ar
    32    23    24   ar
    33    14    15   ar
    34    15    16   ar
    35    16    11   ar
    36     8     3    1
    37    24    19   ar
    38    35    26   ar
    39    34    28   ar
@<TRIPOS>MOLECULE
*****
 35 39 0 0 0
SMALL
GASTEIGER

@<TRIPOS>ATOM
      1 C         139.1836  138.7097  162.5364 C.2     1  UNL1        0.2264
      2 O         137.7056  138.9385  162.4219 O.2     1  UNL1       -0.2748
      3 N         140.0172  138.5584  161.2986 N.am    1  UNL1       -0.2767
      4 C         139.3728  138.6360  159.9463 C.3     1  UNL1        0.1107
      5 C         140.2065  138.4848  158.7084 C.3     1  UNL1        0.0943
      6 N         141.6845  138.2560  158.8229 N.3     1  UNL1       -0.2619
      7 C         142.3289  138.1784  160.1753 C.3     1  UNL1        0.0943
      8 C         141.4952  138.3296  161.4131 C.3     1  UNL1        0.1107
      9 C         139.8280  138.6321  163.8887 C.3     1  UNL1        0.0940
     10 C         140.0729  139.8853  164.6757 C.3     1  UNL1        0.0536
     11 C         138.9429  143.8840  162.9485 C.ar    1  UNL1        0.1387
     12 C         137.9538  143.1180  163.7762 C.ar    1  UNL1        0.0366
     13 C         138.3305  141.7851  164.3520 C.ar    1  UNL1       -0.0008
     14 C         139.6962  141.2182  164.1000 C.ar    1  UNL1       -0.0177
     15 C         140.6852  141.9842  163.2723 C.ar    1  UNL1       -0.0008
     16 C         140.3085  143.3171  162.6966 C.ar    1  UNL1        0.0366
     17 C         139.6245  146.1128  161.8005 C.3     1  UNL1        0.2525
     18 O         138.5662  145.2169  162.3728 O.3     1  UNL1       -0.4714
     19 C         140.6946  139.8056  166.0386 C.ar    1  UNL1       -0.0179
     20 C         142.1098  139.3321  166.1908 C.ar    1  UNL1       -0.0039
     21 C         142.7314  139.2525  167.5536 C.ar    1  UNL1       -0.0003
     22 C         141.9380  139.6463  168.7640 C.ar    1  UNL1       -0.0000
     23 C         140.5229  140.1198  168.6118 C.ar    1  UNL1       -0.0003
     24 C         139.9012  140.1995  167.2490 C.ar    1  UNL1       -0.0039
     25 C         142.5181  138.1047  157.5851 C.3     1  UNL1        0.1588
     26 C         142.7287  136.7467  156.9840 C.ar    1  UNL1        0.2221
     27 N         142.0256  136.1976  155.7781 N.ar    1  UNL1       -0.2109
     28 C         142.5417  134.8108  155.5320 C.ar    1  UNL1        0.1186
     29 C         142.2130  133.7888  154.4845 C.ar    1  UNL1        0.0220
     30 C         142.9064  132.4587  154.4908 C.ar    1  UNL1       -0.0025
     31 C         143.9285  132.1507  155.5446 C.ar    1  UNL1       -0.0187
     32 C         144.6219  130.8206  155.5509 C.3     1  UNL1        0.0311
     33 C         144.2572  133.1728  156.5921 C.ar    1  UNL1        0.0349
     34 C         143.5638  134.5029  156.5858 C.ar    1  UNL1        0.1641
     35 O         143.6793  135.6993  157.4832 O.2     1  UNL1       -0.4370
@<TRIPOS>BOND
     1    17    18    1
     2    18    11    1
     3    11    12   ar
     4    12    13   ar
     5    13    14   ar
     6    14    10    1
     7    10     9    1
     8     9     1    1
     9     1     2    2
    10     1     3   am
    11     3     4    1
    12     4     5    1
    13     5     6    1
    14     6    25    1
    15    25    26    1
    16    26    27   ar
    17    27    28   ar
    18    28    29   ar
    19    29    30   ar
    20    30    31   ar
    21    31    32    1
    22    31    33   ar
    23    33    34   ar
    24    34    35   ar
    25     6     7    1
    26     7     8    1
    27    10    19    1
    28    19    20   ar
    29    20    21   ar
    30    21    22   ar
    31    22    23   ar
    32    23    24   ar
    33    14    15   ar
    34    15    16   ar
    35    16    11   ar
    36     8     3    1
    37    24    19   ar
    38    35    26   ar
    39    34    28   ar
@<TRIPOS>MOLECULE
*****
 35 39 0 0 0
SMALL
GASTEIGER

@<TRIPOS>ATOM
      1 C         142.6108  138.9314  164.4259 C.2     1  UNL1        0.2264
      2 O         141.7970  137.9166  165.1728 O.2     1  UNL1       -0.2748
      3 N         142.5109  139.0206  162.9319 N.am    1  UNL1       -0.2767
      4 C         141.5970  138.0950  162.1848 C.3     1  UNL1        0.1107
      5 C         141.4971  138.1842  160.6907 C.3     1  UNL1        0.0943
      6 N         142.3109  139.1990  159.9438 N.3     1  UNL1       -0.2619
      7 C         143.2248  140.1246  160.6910 C.3     1  UNL1        0.0943
      8 C         143.3247  140.0354  162.1850 C.3     1  UNL1        0.1107
      9 C         143.5246  139.8570  165.1730 C.3     1  UNL1        0.0940
     10 C         142.9568  141.0154  165.9381 C.3     1  UNL1        0.0536
     11 C         141.5339  144.6789  163.7463 C.ar    1  UNL1        0.1387
     12 C         140.5386  143.7164  164.3234 C.ar    1  UNL1        0.0366
     13 C         141.0129  142.4952  165.0540 C.ar    1  UNL1       -0.0008
     14 C         142.4825  142.2366  165.2075 C.ar    1  UNL1       -0.0177
     15 C         143.4777  143.1991  164.6304 C.ar    1  UNL1       -0.0008
     16 C         143.0034  144.4203  163.8998 C.ar    1  UNL1        0.0366
     17 C         139.9205  145.7982  162.0450 C.3     1  UNL1        0.2525
     18 O         141.0596  145.9001  163.0157 O.3     1  UNL1       -0.4714
     19 C         142.8631  140.9528  167.4340 C.ar    1  UNL1       -0.0179
     20 C         143.0792  142.1917  168.2515 C.ar    1  UNL1       -0.0039
     21 C         142.9856  142.1291  169.7472 C.ar    1  UNL1       -0.0003
     22 C         142.6759  140.8275  170.4254 C.ar    1  UNL1       -0.0000
     23 C         142.4599  139.5886  169.6079 C.ar    1  UNL1       -0.0003
     24 C         142.5535  139.6512  168.1122 C.ar    1  UNL1       -0.0039
     25 C         142.2110  139.2882  158.4499 C.3     1  UNL1        0.1588
     26 C         142.1878  138.0365  157.6236 C.ar    1  UNL1        0.2221
     27 N         141.1469  137.6696  156.6079 N.ar    1  UNL1       -0.2109
     28 C         141.5172  136.3382  156.0246 C.ar    1  UNL1        0.1186
     29 C         140.8622  135.4823  154.9814 C.ar    1  UNL1        0.0220
     30 C         141.4771  134.1702  154.5935 C.ar    1  UNL1       -0.0025
     31 C         142.7470  133.7142  155.2488 C.ar    1  UNL1       -0.0187
     32 C         143.3619  132.4021  154.8609 C.3     1  UNL1        0.0311
     33 C         143.4020  134.5702  156.2920 C.ar    1  UNL1        0.0349
     34 C         142.7871  135.8822  156.6799 C.ar    1  UNL1        0.1641
     35 O         143.2016  136.9318  157.6681 O.2     1  UNL1       -0.4370
@<TRIPOS>BOND
     1    17    18    1
     2    18    11    1
     3    11    12   ar
     4    12    13   ar
     5    13    14   ar
     6    14    10    1
     7    10     9    1
     8     9     1    1
     9     1     2    2
    10     1     3   am
    11     3     4    1
    12     4     5    1
    13     5     6    1
    14     6    25    1
    15    25    26    1
    16    26    27   ar
    17    27    28   ar
    18    28    29   ar
    19    29    30   ar
    20    30    31   ar
    21    31    32    1
    22    31    33   ar
    23    33    34   ar
    24    34    35   ar
    25     6     7    1
    26     7     8    1
    27    10    19    1
    28    19    20   ar
    29    20    21   ar
    30    21    22   ar
    31    22    23   ar
    32    23    24   ar
    33    14    15   ar
    34    15    16   ar
    35    16    11   ar
    36     8     3    1
    37    24    19   ar
    38    35    26   ar
    39    34    28   ar
@<TRIPOS>MOLECULE
*****
 35 39 0 0 0
SMALL
GASTEIGER

@<TRIPOS>ATOM
      1 C         144.3794  140.7247  162.3754 C.2     1  UNL1        0.2264
      2 O         145.5220  141.6726  162.1611 O.2     1  UNL1       -0.2748
      3 N         143.6407  140.1621  161.1972 N.am    1  UNL1       -0.2767
      4 C         144.0447  140.5473  159.8050 C.3     1  UNL1        0.1107
      5 C         143.3060  139.9847  158.6269 C.3     1  UNL1        0.0943
      6 N         142.1633  139.0368  158.8411 N.3     1  UNL1       -0.2619
      7 C         141.7594  138.6516  160.2334 C.3     1  UNL1        0.0943
      8 C         142.4981  139.2142  161.4115 C.3     1  UNL1        0.1107
      9 C         143.9754  140.3394  163.7676 C.3     1  UNL1        0.0940
     10 C         143.2925  141.3384  164.6539 C.3     1  UNL1        0.0536
     11 C         142.3430  140.2800  168.9233 C.ar    1  UNL1        0.1387
     12 C         142.7112  139.2019  167.9474 C.ar    1  UNL1        0.0366
     13 C         143.0277  139.5547  166.5243 C.ar    1  UNL1       -0.0008
     14 C         142.9760  140.9856  166.0770 C.ar    1  UNL1       -0.0177
     15 C         142.6078  142.0636  167.0529 C.ar    1  UNL1       -0.0008
     16 C         142.2913  141.7108  168.4760 C.ar    1  UNL1        0.0366
     17 C         140.6490  140.1666  170.8899 C.3     1  UNL1        0.2525
     18 O         142.0265  139.9271  170.3464 O.3     1  UNL1       -0.4714
     19 C         142.9261  142.6904  164.1170 C.ar    1  UNL1       -0.0179
     20 C         143.8797  143.8390  164.2632 C.ar    1  UNL1       -0.0039
     21 C         143.5133  145.1909  163.7264 C.ar    1  UNL1       -0.0003
     22 C         142.1934  145.3941  163.0435 C.ar    1  UNL1       -0.0000
     23 C         141.2399  144.2455  162.8973 C.ar    1  UNL1       -0.0003
     24 C         141.6062  142.8936  163.4341 C.ar    1  UNL1       -0.0039
     25 C         141.4246  138.4742  157.6631 C.3     1  UNL1        0.1588
     26 C         141.8079  137.1346  157.1075 C.ar    1  UNL1        0.2221
     27 N         141.0903  136.3937  156.0185 N.ar    1  UNL1       -0.2109
     28 C         141.8150  135.1019  155.7813 C.ar    1  UNL1        0.1186
     29 C         141.5642  133.9706  154.8290 C.ar    1  UNL1        0.0220
     30 C         142.4789  132.7818  154.8191 C.ar    1  UNL1       -0.0025
     31 C         143.6444  132.7244  155.7616 C.ar    1  UNL1       -0.0187
     32 C         144.5591  131.5356  155.7516 C.3     1  UNL1        0.0311
     33 C         143.8952  133.8558  156.7139 C.ar    1  UNL1        0.0349
     34 C         142.9805  135.0445  156.7238 C.ar    1  UNL1        0.1641
     35 O         142.9761  136.3008  157.5434 O.2     1  UNL1       -0.4370
@<TRIPOS>BOND
     1    17    18    1
     2    18    11    1
     3    11    12   ar
     4    12    13   ar
     5    13    14   ar
     6    14    10    1
     7    10     9    1
     8     9     1    1
     9     1     2    2
    10     1     3   am
    11     3     4    1
    12     4     5    1
    13     5     6    1
    14     6    25    1
    15    25    26    1
    16    26    27   ar
    17    27    28   ar
    18    28    29   ar
    19    29    30   ar
    20    30    31   ar
    21    31    32    1
    22    31    33   ar
    23    33    34   ar
    24    34    35   ar
    25     6     7    1
    26     7     8    1
    27    10    19    1
    28    19    20   ar
    29    20    21   ar
    30    21    22   ar
    31    22    23   ar
    32    23    24   ar
    33    14    15   ar
    34    15    16   ar
    35    16    11   ar
    36     8     3    1
    37    24    19   ar
    38    35    26   ar
    39    34    28   ar
@<TRIPOS>MOLECULE
*****
 35 39 0 0 0
SMALL
GASTEIGER

@<TRIPOS>ATOM
      1 C         139.8107  139.6644  161.8052 C.2     1  UNL1        0.2264
      2 O         138.3254  139.5954  162.0031 O.2     1  UNL1       -0.2748
      3 N         140.4159  139.2184  160.5071 N.am    1  UNL1       -0.2767
      4 C         139.5359  138.7036  159.4070 C.3     1  UNL1        0.1107
      5 C         140.1411  138.2577  158.1089 C.3     1  UNL1        0.0943
      6 N         141.6264  138.3267  157.9110 N.3     1  UNL1       -0.2619
      7 C         142.5065  138.8415  159.0113 C.3     1  UNL1        0.0943
      8 C         141.9012  139.2874  160.3093 C.3     1  UNL1        0.1107
      9 C         140.6908  140.1792  162.9054 C.3     1  UNL1        0.0940
     10 C         140.1696  141.2097  163.8626 C.3     1  UNL1        0.0536
     11 C         139.3950  140.1052  168.1556 C.ar    1  UNL1        0.1387
     12 C         138.7221  139.3438  167.0522 C.ar    1  UNL1        0.0366
     13 C         138.9803  139.7119  165.6212 C.ar    1  UNL1       -0.0008
     14 C         139.9114  140.8415  165.2936 C.ar    1  UNL1       -0.0177
     15 C         140.5842  141.6029  166.3971 C.ar    1  UNL1       -0.0008
     16 C         140.3259  141.2348  167.8281 C.ar    1  UNL1        0.0366
     17 C         140.0878  140.1807  170.6585 C.3     1  UNL1        0.2525
     18 O         139.1367  139.7371  169.5867 O.3     1  UNL1       -0.4714
     19 C         139.9065  142.6084  163.3888 C.ar    1  UNL1       -0.0179
     20 C         141.0232  143.4275  162.8125 C.ar    1  UNL1       -0.0039
     21 C         140.7603  144.8262  162.3388 C.ar    1  UNL1       -0.0003
     22 C         139.3806  145.4058  162.4413 C.ar    1  UNL1       -0.0000
     23 C         138.2639  144.5867  163.0176 C.ar    1  UNL1       -0.0003
     24 C         138.5269  143.1880  163.4914 C.ar    1  UNL1       -0.0039
     25 C         142.2316  137.8808  156.6130 C.3     1  UNL1        0.1588
     26 C         142.4372  136.4195  156.3442 C.ar    1  UNL1        0.2221
     27 N         141.3993  135.4612  155.8399 N.ar    1  UNL1       -0.2109
     28 C         142.0374  134.1093  155.7164 C.ar    1  UNL1        0.1186
     29 C         141.4993  132.7824  155.2696 C.ar    1  UNL1        0.0220
     30 C         142.3936  131.5783  155.2508 C.ar    1  UNL1       -0.0025
     31 C         143.8260  131.7011  155.6787 C.ar    1  UNL1       -0.0187
     32 C         144.7203  130.4969  155.6599 C.3     1  UNL1        0.0311
     33 C         144.3641  133.0280  156.1256 C.ar    1  UNL1        0.0349
     34 C         143.4698  134.2321  156.1444 C.ar    1  UNL1        0.1641
     35 O         143.7169  135.6599  156.5324 O.2     1  UNL1       -0.4370
@<TRIPOS>BOND
     1    17    18    1
     2    18    11    1
     3    11    12   ar
     4    12    13   ar
     5    13    14   ar
     6    14    10    1
     7    10     9    1
     8     9     1    1
     9     1     2    2
    10     1     3   am
    11     3     4    1
    12     4     5    1
    13     5     6    1
    14     6    25    1
    15    25    26    1
    16    26    27   ar
    17    27    28   ar
    18    28    29   ar
    19    29    30   ar
    20    30    31   ar
    21    31    32    1
    22    31    33   ar
    23    33    34   ar
    24    34    35   ar
    25     6     7    1
    26     7     8    1
    27    10    19    1
    28    19    20   ar
    29    20    21   ar
    30    21    22   ar
    31    22    23   ar
    32    23    24   ar
    33    14    15   ar
    34    15    16   ar
    35    16    11   ar
    36     8     3    1
    37    24    19   ar
    38    35    26   ar
    39    34    28   ar
@<TRIPOS>MOLECULE
*****
 35 39 0 0 0
SMALL
GASTEIGER

@<TRIPOS>ATOM
      1 C         142.5481  140.3217  164.7369 C.2     1  UNL1        0.2264
      2 O         142.0964  138.9035  164.9227 O.2     1  UNL1       -0.2748
      3 N         143.0400  140.7827  163.3968 N.am    1  UNL1       -0.2767
      4 C         143.0801  139.8255  162.2427 C.3     1  UNL1        0.1107
      5 C         143.5720  140.2864  160.9027 C.3     1  UNL1        0.0943
      6 N         144.0237  141.7047  160.7168 N.3     1  UNL1       -0.2619
      7 C         143.9836  142.6619  161.8711 C.3     1  UNL1        0.0943
      8 C         143.4917  142.2010  163.2110 C.3     1  UNL1        0.1107
      9 C         142.5080  141.2790  165.8910 C.3     1  UNL1        0.0940
     10 C         141.2306  141.9861  166.2348 C.3     1  UNL1        0.0536
     11 C         139.2450  144.6482  163.1983 C.ar    1  UNL1        0.1387
     12 C         140.6514  144.9301  163.6371 C.ar    1  UNL1        0.0366
     13 C         141.3133  144.0427  164.6493 C.ar    1  UNL1       -0.0008
     14 C         140.5687  142.8735  165.2226 C.ar    1  UNL1       -0.0177
     15 C         139.1624  142.5917  164.7837 C.ar    1  UNL1       -0.0008
     16 C         138.5005  143.4791  163.7716 C.ar    1  UNL1        0.0366
     17 C         139.4121  146.4525  161.3364 C.3     1  UNL1        0.2525
     18 O         138.5831  145.5356  162.1861 O.3     1  UNL1       -0.4714
     19 C         140.6151  141.8059  167.5908 C.ar    1  UNL1       -0.0179
     20 C         140.6787  142.9166  168.5969 C.ar    1  UNL1       -0.0039
     21 C         140.0632  142.7364  169.9529 C.ar    1  UNL1       -0.0003
     22 C         139.3840  141.4456  170.3027 C.ar    1  UNL1       -0.0000
     23 C         139.3204  140.3349  169.2965 C.ar    1  UNL1       -0.0003
     24 C         139.9359  140.5150  167.9406 C.ar    1  UNL1       -0.0039
     25 C         144.5156  142.1657  159.3769 C.3     1  UNL1        0.1588
     26 C         143.6560  143.0543  158.5275 C.ar    1  UNL1        0.2221
     27 N         142.6945  144.0910  159.0281 N.ar    1  UNL1       -0.2109
     28 C         142.0512  144.7396  157.8383 C.ar    1  UNL1        0.1186
     29 C         141.0248  145.8271  157.7207 C.ar    1  UNL1        0.0220
     30 C         140.5624  146.2787  156.3671 C.ar    1  UNL1       -0.0025
     31 C         141.1264  145.6428  155.1312 C.ar    1  UNL1       -0.0187
     32 C         140.6639  146.0944  153.7776 C.3     1  UNL1        0.0311
     33 C         142.1528  144.5553  155.2488 C.ar    1  UNL1        0.0349
     34 C         142.6152  144.1037  156.6024 C.ar    1  UNL1        0.1641
     35 O         143.6070  143.0622  157.0283 O.2     1  UNL1       -0.4370
@<TRIPOS>BOND
     1    17    18    1
     2    18    11    1
     3    11    12   ar
     4    12    13   ar
     5    13    14   ar
     6    14    10    1
     7    10     9    1
     8     9     1    1
     9     1     2    2
    10     1     3   am
    11     3     4    1
    12     4     5    1
    13     5     6    1
    14     6    25    1
    15    25    26    1
    16    26    27   ar
    17    27    28   ar
    18    28    29   ar
    19    29    30   ar
    20    30    31   ar
    21    31    32    1
    22    31    33   ar
    23    33    34   ar
    24    34    35   ar
    25     6     7    1
    26     7     8    1
    27    10    19    1
    28    19    20   ar
    29    20    21   ar
    30    21    22   ar
    31    22    23   ar
    32    23    24   ar
    33    14    15   ar
    34    15    16   ar
    35    16    11   ar
    36     8     3    1
    37    24    19   ar
    38    35    26   ar
    39    34    28   ar
