@<TRIPOS>MOLECULE
*****
 32 35 0 0 0
SMALL
GASTEIGER

@<TRIPOS>ATOM
      1 N         140.4116  138.9132  162.4321 N.3     1  UNL1       -0.2713
      2 C         141.6096  139.8100  162.3282 C.3     1  UNL1        0.0896
      3 C         142.6803  139.7558  163.3773 C.3     1  UNL1        0.0897
      4 N         142.5531  138.8048  164.5303 N.3     1  UNL1       -0.2700
      5 C         141.3552  137.9080  164.6343 C.3     1  UNL1        0.0897
      6 C         140.2845  137.9623  163.5851 C.3     1  UNL1        0.0896
      7 C         139.3409  138.9674  161.3830 C.3     1  UNL1        0.0620
      8 C         139.5388  138.2653  160.0723 C.3     1  UNL1        0.0177
      9 C         138.0722  139.7236  161.6446 C.3     1  UNL1        0.0424
     10 C         138.1196  143.4714  162.9489 C.ar    1  UNL1        0.1479
     11 C         138.1130  142.2941  162.0195 C.ar    1  UNL1        0.0334
     12 C         138.0788  140.9009  162.5741 C.ar    1  UNL1       -0.0178
     13 C         138.0513  140.6849  164.0583 C.ar    1  UNL1       -0.0033
     14 C         138.0579  141.8622  164.9877 C.ar    1  UNL1        0.0130
     15 C         138.0921  143.2555  164.4330 C.ar    1  UNL1        0.1023
     16 C         139.4687  145.5508  162.1705 C.3     1  UNL1        0.2525
     17 O         138.1537  144.8648  162.3943 O.3     1  UNL1       -0.4708
     18 C         138.0987  144.4328  165.3626 C.1     1  UNL1        0.1035
     19 N         138.1052  145.6100  166.2921 N.1     1  UNL1       -0.1907
     20 C         143.6239  138.7507  165.5794 C.3     1  UNL1        0.0769
     21 C         143.2500  138.6339  167.0273 C.3     1  UNL1        0.0433
     22 C         142.5607  139.7732  167.7182 C.ar    1  UNL1       -0.0249
     23 C         142.1381  140.9802  166.9345 C.ar    1  UNL1       -0.0043
     24 C         141.4489  142.1194  167.6253 C.ar    1  UNL1        0.0059
     25 C         141.1823  142.0515  169.0999 C.ar    1  UNL1        0.0748
     26 C         141.6050  140.8444  169.8836 C.ar    1  UNL1        0.0233
     27 C         142.2942  139.7052  169.1928 C.ar    1  UNL1       -0.0260
     28 C         142.7169  138.4980  169.9765 C.3     1  UNL1        0.0305
     29 C         141.2108  141.0595  171.3148 C.3     1  UNL1        0.2352
     30 O         140.5445  142.3996  171.4156 O.3     1  UNL1       -0.4404
     31 C         140.5269  143.0127  170.0467 C.2     1  UNL1        0.3413
     32 O         139.9544  144.3518  169.6877 O.2     1  UNL1       -0.2449
@<TRIPOS>BOND
     1    16    17    1
     2    17    10    1
     3    10    11   ar
     4    11    12   ar
     5    12     9    1
     6     9     7    1
     7     7     8    1
     8     7     1    1
     9     1     2    1
    10     2     3    1
    11     3     4    1
    12     4    20    1
    13    20    21    1
    14    21    22    1
    15    22    23   ar
    16    23    24   ar
    17    24    25   ar
    18    25    26   ar
    19    26    27   ar
    20    27    28    1
    21    26    29    1
    22    29    30    1
    23    30    31    1
    24    31    32    2
    25     4     5    1
    26     5     6    1
    27    12    13   ar
    28    13    14   ar
    29    14    15   ar
    30    15    18    1
    31    18    19    3
    32    15    10   ar
    33     6     1    1
    34    27    22   ar
    35    31    25    1
@<TRIPOS>MOLECULE
*****
 32 35 0 0 0
SMALL
GASTEIGER

@<TRIPOS>ATOM
      1 N         142.3475  138.7672  164.0579 N.3     1  UNL1       -0.2713
      2 C         142.3685  139.4168  162.7060 C.3     1  UNL1        0.0896
      3 C         141.1800  139.2989  161.7987 C.3     1  UNL1        0.0897
      4 N         139.9703  138.5314  162.2431 N.3     1  UNL1       -0.2700
      5 C         139.9491  137.8818  163.5950 C.3     1  UNL1        0.0897
      6 C         141.1377  137.9997  164.5024 C.3     1  UNL1        0.0896
      7 C         143.5360  138.8851  164.9654 C.3     1  UNL1        0.0620
      8 C         144.9033  139.0984  164.3866 C.3     1  UNL1        0.0177
      9 C         143.3573  138.7896  166.4516 C.3     1  UNL1        0.0424
     10 C         141.1549  140.7368  169.1176 C.ar    1  UNL1        0.1479
     11 C         141.8076  139.6141  168.3669 C.ar    1  UNL1        0.0334
     12 C         142.7047  139.9123  167.2023 C.ar    1  UNL1       -0.0178
     13 C         142.9491  141.3332  166.7884 C.ar    1  UNL1       -0.0033
     14 C         142.2965  142.4559  167.5391 C.ar    1  UNL1        0.0130
     15 C         141.3994  142.1577  168.7037 C.ar    1  UNL1        0.1023
     16 C         138.7717  140.3786  170.0879 C.3     1  UNL1        0.2525
     17 O         140.2578  140.4387  170.2822 O.3     1  UNL1       -0.4708
     18 C         140.7468  143.2805  169.4544 C.1     1  UNL1        0.1035
     19 N         140.0942  144.4033  170.2050 N.1     1  UNL1       -0.1907
     20 C         138.7817  138.4136  161.3357 C.3     1  UNL1        0.0769
     21 C         137.7611  139.5119  161.2900 C.3     1  UNL1        0.0433
     22 C         137.9749  140.7678  162.0820 C.ar    1  UNL1       -0.0249
     23 C         137.5484  140.8302  163.5187 C.ar    1  UNL1       -0.0043
     24 C         137.7622  142.0860  164.3106 C.ar    1  UNL1        0.0059
     25 C         138.4025  143.2795  163.6658 C.ar    1  UNL1        0.0748
     26 C         138.8290  143.2171  162.2291 C.ar    1  UNL1        0.0233
     27 C         138.6152  141.9612  161.4371 C.ar    1  UNL1       -0.0260
     28 C         139.0417  141.8987  160.0004 C.3     1  UNL1        0.0305
     29 C         139.4298  144.5426  161.8658 C.3     1  UNL1        0.2352
     30 O         139.3745  145.4243  163.0781 O.3     1  UNL1       -0.4404
     31 C         138.7396  144.6436  164.1906 C.2     1  UNL1        0.3413
     32 O         138.4864  145.1400  165.5832 O.2     1  UNL1       -0.2449
@<TRIPOS>BOND
     1    16    17    1
     2    17    10    1
     3    10    11   ar
     4    11    12   ar
     5    12     9    1
     6     9     7    1
     7     7     8    1
     8     7     1    1
     9     1     2    1
    10     2     3    1
    11     3     4    1
    12     4    20    1
    13    20    21    1
    14    21    22    1
    15    22    23   ar
    16    23    24   ar
    17    24    25   ar
    18    25    26   ar
    19    26    27   ar
    20    27    28    1
    21    26    29    1
    22    29    30    1
    23    30    31    1
    24    31    32    2
    25     4     5    1
    26     5     6    1
    27    12    13   ar
    28    13    14   ar
    29    14    15   ar
    30    15    18    1
    31    18    19    3
    32    15    10   ar
    33     6     1    1
    34    27    22   ar
    35    31    25    1
@<TRIPOS>MOLECULE
*****
 32 35 0 0 0
SMALL
GASTEIGER

@<TRIPOS>ATOM
      1 N         140.8116  140.4901  166.8881 N.3     1  UNL1       -0.2713
      2 C         140.9496  141.9501  166.5730 C.3     1  UNL1        0.0896
      3 C         142.1631  142.4492  165.8463 C.3     1  UNL1        0.0897
      4 N         143.2388  141.4882  165.4345 N.3     1  UNL1       -0.2700
      5 C         143.1009  140.0282  165.7495 C.3     1  UNL1        0.0897
      6 C         141.8873  139.5291  166.4763 C.3     1  UNL1        0.0896
      7 C         139.5981  139.9909  167.6148 C.3     1  UNL1        0.0620
      8 C         139.4056  140.3180  169.0660 C.3     1  UNL1        0.0177
      9 C         138.5771  139.1647  166.8904 C.3     1  UNL1        0.0424
     10 C         137.7414  140.6778  163.3181 C.ar    1  UNL1        0.1479
     11 C         137.8883  140.5536  164.8057 C.ar    1  UNL1        0.0334
     12 C         138.4302  139.2888  165.4028 C.ar    1  UNL1       -0.0178
     13 C         138.8253  138.1482  164.5124 C.ar    1  UNL1       -0.0033
     14 C         138.6784  138.2724  163.0248 C.ar    1  UNL1        0.0130
     15 C         138.1364  139.5372  162.4276 C.ar    1  UNL1        0.1023
     16 C         137.7284  143.2717  163.1721 C.3     1  UNL1        0.2525
     17 O         137.1994  141.9426  162.7208 O.3     1  UNL1       -0.4708
     18 C         137.9896  139.6613  160.9399 C.1     1  UNL1        0.1035
     19 N         137.8426  139.7854  159.4523 N.1     1  UNL1       -0.1907
     20 C         144.4523  141.9874  164.7077 C.3     1  UNL1        0.0769
     21 C         144.4759  142.0001  163.2079 C.3     1  UNL1        0.0433
     22 C         143.2358  142.3531  162.4413 C.ar    1  UNL1       -0.0249
     23 C         142.4370  141.2756  161.7699 C.ar    1  UNL1       -0.0043
     24 C         141.1969  141.6285  161.0033 C.ar    1  UNL1        0.0059
     25 C         140.7557  143.0589  160.9080 C.ar    1  UNL1        0.0748
     26 C         141.5546  144.1365  161.5794 C.ar    1  UNL1        0.0233
     27 C         142.7946  143.7836  162.3460 C.ar    1  UNL1       -0.0260
     28 C         143.5935  144.8611  163.0174 C.3     1  UNL1        0.0305
     29 C         140.8783  145.4487  161.3136 C.3     1  UNL1        0.2352
     30 O         139.6615  145.1822  160.4780 O.3     1  UNL1       -0.4404
     31 C         139.5857  143.7052  160.2273 C.2     1  UNL1        0.3413
     32 O         138.5260  142.9986  159.4350 O.2     1  UNL1       -0.2449
@<TRIPOS>BOND
     1    16    17    1
     2    17    10    1
     3    10    11   ar
     4    11    12   ar
     5    12     9    1
     6     9     7    1
     7     7     8    1
     8     7     1    1
     9     1     2    1
    10     2     3    1
    11     3     4    1
    12     4    20    1
    13    20    21    1
    14    21    22    1
    15    22    23   ar
    16    23    24   ar
    17    24    25   ar
    18    25    26   ar
    19    26    27   ar
    20    27    28    1
    21    26    29    1
    22    29    30    1
    23    30    31    1
    24    31    32    2
    25     4     5    1
    26     5     6    1
    27    12    13   ar
    28    13    14   ar
    29    14    15   ar
    30    15    18    1
    31    18    19    3
    32    15    10   ar
    33     6     1    1
    34    27    22   ar
    35    31    25    1
@<TRIPOS>MOLECULE
*****
 32 35 0 0 0
SMALL
GASTEIGER

@<TRIPOS>ATOM
      1 N         143.1749  139.0855  161.4986 N.3     1  UNL1       -0.2713
      2 C         143.5849  138.7338  162.8980 C.3     1  UNL1        0.0896
      3 C         144.4134  139.6929  163.7002 C.3     1  UNL1        0.0897
      4 N         144.8321  141.0037  163.1031 N.3     1  UNL1       -0.2700
      5 C         144.4222  141.3554  161.7037 C.3     1  UNL1        0.0897
      6 C         143.5936  140.3962  160.9015 C.3     1  UNL1        0.0896
      7 C         142.3464  138.1264  160.6963 C.3     1  UNL1        0.0620
      8 C         143.0132  137.1449  159.7787 C.3     1  UNL1        0.0177
      9 C         140.8510  138.1489  160.8116 C.3     1  UNL1        0.0424
     10 C         138.6162  139.4672  163.8144 C.ar    1  UNL1        0.1479
     11 C         139.2631  139.3721  162.4645 C.ar    1  UNL1        0.0334
     12 C         140.2042  138.2440  162.1616 C.ar    1  UNL1       -0.0178
     13 C         140.4984  137.2110  163.2087 C.ar    1  UNL1       -0.0033
     14 C         139.8515  137.3062  164.5587 C.ar    1  UNL1        0.0130
     15 C         138.9104  138.4343  164.8616 C.ar    1  UNL1        0.1023
     16 C         137.2806  141.5545  163.0337 C.3     1  UNL1        0.2525
     17 O         137.6751  140.5953  164.1174 O.3     1  UNL1       -0.4708
     18 C         138.2636  138.5294  166.2116 C.1     1  UNL1        0.1035
     19 N         137.6166  138.6245  167.5616 N.1     1  UNL1       -0.1907
     20 C         145.6607  141.9627  163.9054 C.3     1  UNL1        0.0769
     21 C         144.9930  143.0260  164.7262 C.3     1  UNL1        0.0433
     22 C         143.6475  143.5516  164.3215 C.ar    1  UNL1       -0.0249
     23 C         143.5200  144.4413  163.1208 C.ar    1  UNL1       -0.0043
     24 C         142.1747  144.9669  162.7161 C.ar    1  UNL1        0.0059
     25 C         140.9567  144.6026  163.5123 C.ar    1  UNL1        0.0748
     26 C         141.0842  143.7127  164.7131 C.ar    1  UNL1        0.0233
     27 C         142.4295  143.1872  165.1178 C.ar    1  UNL1       -0.0260
     28 C         142.5571  142.2974  166.3186 C.3     1  UNL1        0.0305
     29 C         139.7161  143.5263  165.2992 C.3     1  UNL1        0.2352
     30 O         138.7431  144.3009  164.4606 O.3     1  UNL1       -0.4404
     31 C         139.5098  144.9661  163.3562 C.2     1  UNL1        0.3413
     32 O         138.9312  145.8411  162.2841 O.2     1  UNL1       -0.2449
@<TRIPOS>BOND
     1    16    17    1
     2    17    10    1
     3    10    11   ar
     4    11    12   ar
     5    12     9    1
     6     9     7    1
     7     7     8    1
     8     7     1    1
     9     1     2    1
    10     2     3    1
    11     3     4    1
    12     4    20    1
    13    20    21    1
    14    21    22    1
    15    22    23   ar
    16    23    24   ar
    17    24    25   ar
    18    25    26   ar
    19    26    27   ar
    20    27    28    1
    21    26    29    1
    22    29    30    1
    23    30    31    1
    24    31    32    2
    25     4     5    1
    26     5     6    1
    27    12    13   ar
    28    13    14   ar
    29    14    15   ar
    30    15    18    1
    31    18    19    3
    32    15    10   ar
    33     6     1    1
    34    27    22   ar
    35    31    25    1
@<TRIPOS>MOLECULE
*****
 32 35 0 0 0
SMALL
GASTEIGER

@<TRIPOS>ATOM
      1 N         142.4031  143.4401  160.5734 N.3     1  UNL1       -0.2713
      2 C         141.0137  143.1050  160.1182 C.3     1  UNL1        0.0896
      3 C         139.8299  143.6941  160.8264 C.3     1  UNL1        0.0897
      4 N         140.0354  144.6183  161.9899 N.3     1  UNL1       -0.2700
      5 C         141.4248  144.9534  162.4452 C.3     1  UNL1        0.0897
      6 C         142.6087  144.3643  161.7369 C.3     1  UNL1        0.0896
      7 C         143.5870  142.8511  159.8652 C.3     1  UNL1        0.0620
      8 C         143.5616  142.6819  158.3750 C.3     1  UNL1        0.0177
      9 C         144.7961  142.4312  160.6473 C.3     1  UNL1        0.0424
     10 C         143.7816  139.3274  162.9027 C.ar    1  UNL1        0.1479
     11 C         143.9343  140.2219  161.7083 C.ar    1  UNL1        0.0334
     12 C         144.6435  141.5369  161.8417 C.ar    1  UNL1       -0.0178
     13 C         145.2000  141.9574  163.1697 C.ar    1  UNL1       -0.0033
     14 C         145.0474  141.0630  164.3641 C.ar    1  UNL1        0.0130
     15 C         144.3381  139.7480  164.2306 C.ar    1  UNL1        0.1023
     16 C         141.5925  137.9316  163.0006 C.3     1  UNL1        0.2525
     17 O         143.0724  138.0124  162.7693 O.3     1  UNL1       -0.4708
     18 C         144.1855  138.8536  165.4251 C.1     1  UNL1        0.1035
     19 N         144.0330  137.9592  166.6196 N.1     1  UNL1       -0.1907
     20 C         138.8516  145.2073  162.6980 C.3     1  UNL1        0.0769
     21 C         137.9767  144.3355  163.5493 C.3     1  UNL1        0.0433
     22 C         138.5894  143.2705  164.4099 C.ar    1  UNL1       -0.0249
     23 C         139.5559  143.6460  165.4937 C.ar    1  UNL1       -0.0043
     24 C         140.1685  142.5811  166.3543 C.ar    1  UNL1        0.0059
     25 C         139.8146  141.1407  166.1310 C.ar    1  UNL1        0.0748
     26 C         138.8480  140.7651  165.0472 C.ar    1  UNL1        0.0233
     27 C         138.2354  141.8300  164.1866 C.ar    1  UNL1       -0.0260
     28 C         137.2688  141.4546  163.1027 C.3     1  UNL1        0.0305
     29 C         138.6913  139.2734  165.0622 C.3     1  UNL1        0.2352
     30 O         139.5611  138.7270  166.1553 O.3     1  UNL1       -0.4404
     31 C         140.2553  139.8810  166.8159 C.2     1  UNL1        0.3413
     32 O         141.2207  139.7911  167.9604 O.2     1  UNL1       -0.2449
@<TRIPOS>BOND
     1    16    17    1
     2    17    10    1
     3    10    11   ar
     4    11    12   ar
     5    12     9    1
     6     9     7    1
     7     7     8    1
     8     7     1    1
     9     1     2    1
    10     2     3    1
    11     3     4    1
    12     4    20    1
    13    20    21    1
    14    21    22    1
    15    22    23   ar
    16    23    24   ar
    17    24    25   ar
    18    25    26   ar
    19    26    27   ar
    20    27    28    1
    21    26    29    1
    22    29    30    1
    23    30    31    1
    24    31    32    2
    25     4     5    1
    26     5     6    1
    27    12    13   ar
    28    13    14   ar
    29    14    15   ar
    30    15    18    1
    31    18    19    3
    32    15    10   ar
    33     6     1    1
    34    27    22   ar
    35    31    25    1
@<TRIPOS>MOLECULE
*****
 32 35 0 0 0
SMALL
GASTEIGER

@<TRIPOS>ATOM
      1 N         143.7255  140.0305  163.5644 N.3     1  UNL1       -0.2713
      2 C         143.2341  138.9650  162.6300 C.3     1  UNL1        0.0896
      3 C         142.1210  138.0524  163.0521 C.3     1  UNL1        0.0897
      4 N         141.4993  138.2052  164.4086 N.3     1  UNL1       -0.2700
      5 C         141.9907  139.2707  165.3431 C.3     1  UNL1        0.0897
      6 C         143.1038  140.1834  164.9209 C.3     1  UNL1        0.0896
      7 C         144.8386  140.9432  163.1424 C.3     1  UNL1        0.0620
      8 C         146.0594  141.0846  164.0024 C.3     1  UNL1        0.0177
      9 C         144.7309  141.7144  161.8604 C.3     1  UNL1        0.0424
     10 C         141.9824  144.4557  162.6853 C.ar    1  UNL1        0.1479
     11 C         143.0822  143.4519  162.8666 C.ar    1  UNL1        0.0334
     12 C         143.6311  142.7181  161.6790 C.ar    1  UNL1       -0.0178
     13 C         143.0802  142.9881  160.3102 C.ar    1  UNL1       -0.0033
     14 C         141.9804  143.9919  160.1290 C.ar    1  UNL1        0.0130
     15 C         141.4315  144.7257  161.3165 C.ar    1  UNL1        0.1023
     16 C         140.3010  144.6006  164.6606 C.3     1  UNL1        0.2525
     17 O         141.4335  145.1896  163.8728 O.3     1  UNL1       -0.4708
     18 C         140.3317  145.7295  161.1352 C.1     1  UNL1        0.1035
     19 N         139.2319  146.7332  160.9537 N.1     1  UNL1       -0.1907
     20 C         140.3862  137.2926  164.8306 C.3     1  UNL1        0.0769
     21 C         138.9590  137.7210  164.6587 C.3     1  UNL1        0.0433
     22 C         138.6450  139.0966  164.1492 C.ar    1  UNL1       -0.0249
     23 C         138.4318  140.2237  165.1156 C.ar    1  UNL1       -0.0043
     24 C         138.1179  141.5992  164.6062 C.ar    1  UNL1        0.0059
     25 C         138.0171  141.8475  163.1303 C.ar    1  UNL1        0.0748
     26 C         138.2303  140.7203  162.1639 C.ar    1  UNL1        0.0233
     27 C         138.5443  139.3448  162.6733 C.ar    1  UNL1       -0.0260
     28 C         138.7575  138.2176  161.7069 C.3     1  UNL1        0.0305
     29 C         138.0685  141.2635  160.7751 C.3     1  UNL1        0.2352
     30 O         137.7553  142.7265  160.8833 O.3     1  UNL1       -0.4404
     31 C         137.7235  143.0874  162.3389 C.2     1  UNL1        0.3413
     32 O         137.4468  144.4491  162.9038 O.2     1  UNL1       -0.2449
@<TRIPOS>BOND
     1    16    17    1
     2    17    10    1
     3    10    11   ar
     4    11    12   ar
     5    12     9    1
     6     9     7    1
     7     7     8    1
     8     7     1    1
     9     1     2    1
    10     2     3    1
    11     3     4    1
    12     4    20    1
    13    20    21    1
    14    21    22    1
    15    22    23   ar
    16    23    24   ar
    17    24    25   ar
    18    25    26   ar
    19    26    27   ar
    20    27    28    1
    21    26    29    1
    22    29    30    1
    23    30    31    1
    24    31    32    2
    25     4     5    1
    26     5     6    1
    27    12    13   ar
    28    13    14   ar
    29    14    15   ar
    30    15    18    1
    31    18    19    3
    32    15    10   ar
    33     6     1    1
    34    27    22   ar
    35    31    25    1
@<TRIPOS>MOLECULE
*****
 32 35 0 0 0
SMALL
GASTEIGER

@<TRIPOS>ATOM
      1 N         140.4761  140.0838  160.6507 N.3     1  UNL1       -0.2713
      2 C         141.2646  141.3538  160.7738 C.3     1  UNL1        0.0896
      3 C         142.6177  141.3368  161.4210 C.3     1  UNL1        0.0897
      4 N         143.1823  140.0497  161.9451 N.3     1  UNL1       -0.2700
      5 C         142.3938  138.7796  161.8220 C.3     1  UNL1        0.0897
      6 C         141.0407  138.7967  161.1748 C.3     1  UNL1        0.0896
      7 C         139.1230  140.1007  160.0035 C.3     1  UNL1        0.0620
      8 C         138.9903  139.8236  158.5353 C.3     1  UNL1        0.0177
      9 C         137.9026  140.3948  160.8245 C.3     1  UNL1        0.0424
     10 C         138.1651  143.8971  162.6724 C.ar    1  UNL1        0.1479
     11 C         138.1040  142.8730  161.5781 C.ar    1  UNL1        0.0334
     12 C         137.9636  141.4189  161.9188 C.ar    1  UNL1       -0.0178
     13 C         137.8844  140.9890  163.3537 C.ar    1  UNL1       -0.0033
     14 C         137.9455  142.0132  164.4479 C.ar    1  UNL1        0.0130
     15 C         138.0858  143.4672  164.1072 C.ar    1  UNL1        0.1023
     16 C         139.6535  145.9156  161.9938 C.3     1  UNL1        0.2525
     17 O         138.3054  145.3512  162.3318 O.3     1  UNL1       -0.4708
     18 C         138.1469  144.4914  165.2016 C.1     1  UNL1        0.1035
     19 N         138.2081  145.5155  166.2959 N.1     1  UNL1       -0.1907
     20 C         144.5354  140.0327  162.5923 C.3     1  UNL1        0.0769
     21 C         144.6555  139.8350  164.0743 C.3     1  UNL1        0.0433
     22 C         143.6607  140.4719  164.9990 C.ar    1  UNL1       -0.0249
     23 C         143.7399  141.9414  165.2886 C.ar    1  UNL1       -0.0043
     24 C         142.7453  142.5783  166.2133 C.ar    1  UNL1        0.0059
     25 C         141.6714  141.7456  166.8484 C.ar    1  UNL1        0.0748
     26 C         141.5922  140.2759  166.5587 C.ar    1  UNL1        0.0233
     27 C         142.5868  139.6390  165.6341 C.ar    1  UNL1       -0.0260
     28 C         142.5077  138.1693  165.3444 C.3     1  UNL1        0.0305
     29 C         140.4319  139.7142  167.3257 C.3     1  UNL1        0.2352
     30 O         139.7940  140.8366  168.0893 O.3     1  UNL1       -0.4404
     31 C         140.5600  142.0921  167.7943 C.2     1  UNL1        0.3413
     32 O         140.2663  143.4549  168.3480 O.2     1  UNL1       -0.2449
@<TRIPOS>BOND
     1    16    17    1
     2    17    10    1
     3    10    11   ar
     4    11    12   ar
     5    12     9    1
     6     9     7    1
     7     7     8    1
     8     7     1    1
     9     1     2    1
    10     2     3    1
    11     3     4    1
    12     4    20    1
    13    20    21    1
    14    21    22    1
    15    22    23   ar
    16    23    24   ar
    17    24    25   ar
    18    25    26   ar
    19    26    27   ar
    20    27    28    1
    21    26    29    1
    22    29    30    1
    23    30    31    1
    24    31    32    2
    25     4     5    1
    26     5     6    1
    27    12    13   ar
    28    13    14   ar
    29    14    15   ar
    30    15    18    1
    31    18    19    3
    32    15    10   ar
    33     6     1    1
    34    27    22   ar
    35    31    25    1
@<TRIPOS>MOLECULE
*****
 32 35 0 0 0
SMALL
GASTEIGER

@<TRIPOS>ATOM
      1 N         140.1932  138.7114  164.5829 N.3     1  UNL1       -0.2713
      2 C         139.7831  138.4836  163.1581 C.3     1  UNL1        0.0896
      3 C         140.8172  138.1492  162.1243 C.3     1  UNL1        0.0897
      4 N         142.2615  138.0426  162.5152 N.3     1  UNL1       -0.2700
      5 C         142.6716  138.2704  163.9400 C.3     1  UNL1        0.0897
      6 C         141.6374  138.6048  164.9738 C.3     1  UNL1        0.0896
      7 C         139.1591  139.0458  165.6167 C.3     1  UNL1        0.0620
      8 C         138.1956  137.9942  166.0813 C.3     1  UNL1        0.0177
      9 C         139.0886  140.4317  166.1860 C.3     1  UNL1        0.0424
     10 C         138.3928  142.7971  163.0763 C.ar    1  UNL1        0.1479
     11 C         138.3520  141.6081  163.9898 C.ar    1  UNL1        0.0334
     12 C         139.1294  141.6208  165.2726 C.ar    1  UNL1       -0.0178
     13 C         139.9477  142.8225  165.6418 C.ar    1  UNL1       -0.0033
     14 C         139.9885  144.0115  164.7282 C.ar    1  UNL1        0.0130
     15 C         139.2110  143.9988  163.4455 C.ar    1  UNL1        0.1023
     16 C         138.2577  142.2883  160.5321 C.3     1  UNL1        0.2525
     17 O         137.6153  142.7845  161.7935 O.3     1  UNL1       -0.4708
     18 C         139.2519  145.1879  162.5320 C.1     1  UNL1        0.1035
     19 N         139.2926  146.3770  161.6185 N.1     1  UNL1       -0.1907
     20 C         143.2955  137.7082  161.4814 C.3     1  UNL1        0.0769
     21 C         144.2752  138.7528  161.0352 C.3     1  UNL1        0.0433
     22 C         144.1008  140.1784  161.4683 C.ar    1  UNL1       -0.0249
     23 C         144.8700  140.7047  162.6435 C.ar    1  UNL1       -0.0043
     24 C         144.6956  142.1301  163.0766 C.ar    1  UNL1        0.0059
     25 C         143.7519  143.0293  162.3344 C.ar    1  UNL1        0.0748
     26 C         142.9826  142.5031  161.1591 C.ar    1  UNL1        0.0233
     27 C         143.1570  141.0776  160.7261 C.ar    1  UNL1       -0.0260
     28 C         142.3878  140.5512  159.5508 C.3     1  UNL1        0.0305
     29 C         142.1309  143.6169  160.6262 C.3     1  UNL1        0.2352
     30 O         142.3738  144.8315  161.4721 O.3     1  UNL1       -0.4404
     31 C         143.3756  144.4685  162.5278 C.2     1  UNL1        0.3413
     32 O         143.9078  145.3838  163.5904 O.2     1  UNL1       -0.2449
@<TRIPOS>BOND
     1    16    17    1
     2    17    10    1
     3    10    11   ar
     4    11    12   ar
     5    12     9    1
     6     9     7    1
     7     7     8    1
     8     7     1    1
     9     1     2    1
    10     2     3    1
    11     3     4    1
    12     4    20    1
    13    20    21    1
    14    21    22    1
    15    22    23   ar
    16    23    24   ar
    17    24    25   ar
    18    25    26   ar
    19    26    27   ar
    20    27    28    1
    21    26    29    1
    22    29    30    1
    23    30    31    1
    24    31    32    2
    25     4     5    1
    26     5     6    1
    27    12    13   ar
    28    13    14   ar
    29    14    15   ar
    30    15    18    1
    31    18    19    3
    32    15    10   ar
    33     6     1    1
    34    27    22   ar
    35    31    25    1
@<TRIPOS>MOLECULE
*****
 32 35 0 0 0
SMALL
GASTEIGER

@<TRIPOS>ATOM
      1 N         142.4165  139.2557  163.5435 N.3     1  UNL1       -0.2713
      2 C         143.4964  140.2723  163.7678 C.3     1  UNL1        0.0896
      3 C         143.7784  141.3100  162.7220 C.3     1  UNL1        0.0897
      4 N         142.9805  141.3312  161.4520 N.3     1  UNL1       -0.2700
      5 C         141.9006  140.3146  161.2277 C.3     1  UNL1        0.0897
      6 C         141.6186  139.2769  162.2735 C.3     1  UNL1        0.0896
      7 C         142.1344  138.2179  164.5892 C.3     1  UNL1        0.0620
      8 C         141.2858  137.0272  164.2544 C.3     1  UNL1        0.0177
      9 C         142.7009  138.3708  165.9696 C.3     1  UNL1        0.0424
     10 C         142.2110  140.8096  169.0618 C.ar    1  UNL1        0.1479
     11 C         142.8543  139.8685  168.0870 C.ar    1  UNL1        0.0334
     12 C         142.0576  139.3120  166.9444 C.ar    1  UNL1       -0.0178
     13 C         140.6175  139.6968  166.7766 C.ar    1  UNL1       -0.0033
     14 C         139.9742  140.6380  167.7515 C.ar    1  UNL1        0.0130
     15 C         140.7710  141.1944  168.8941 C.ar    1  UNL1        0.1023
     16 C         143.9775  142.4857  169.9676 C.3     1  UNL1        0.2525
     17 O         143.0078  141.3661  170.2045 O.3     1  UNL1       -0.4708
     18 C         140.1275  142.1356  169.8689 C.1     1  UNL1        0.1035
     19 N         139.4840  143.0768  170.8436 N.1     1  UNL1       -0.1907
     20 C         143.2626  142.3690  160.4064 C.3     1  UNL1        0.0769
     21 C         142.5129  143.6681  160.4176 C.3     1  UNL1        0.0433
     22 C         141.5732  143.9821  161.5440 C.ar    1  UNL1       -0.0249
     23 C         142.0798  144.6806  162.7708 C.ar    1  UNL1       -0.0043
     24 C         141.1402  144.9945  163.8971 C.ar    1  UNL1        0.0059
     25 C         139.6939  144.6099  163.7964 C.ar    1  UNL1        0.0748
     26 C         139.1872  143.9114  162.5695 C.ar    1  UNL1        0.0233
     27 C         140.1268  143.5974  161.4433 C.ar    1  UNL1       -0.0260
     28 C         139.6201  142.8988  160.2163 C.3     1  UNL1        0.0305
     29 C         137.7204  143.6567  162.7536 C.3     1  UNL1        0.2352
     30 O         137.3207  144.1978  164.0942 O.3     1  UNL1       -0.4404
     31 C         138.5403  144.7870  164.7387 C.2     1  UNL1        0.3413
     32 O         138.5965  145.4387  166.0886 O.2     1  UNL1       -0.2449
@<TRIPOS>BOND
     1    16    17    1
     2    17    10    1
     3    10    11   ar
     4    11    12   ar
     5    12     9    1
     6     9     7    1
     7     7     8    1
     8     7     1    1
     9     1     2    1
    10     2     3    1
    11     3     4    1
    12     4    20    1
    13    20    21    1
    14    21    22    1
    15    22    23   ar
    16    23    24   ar
    17    24    25   ar
    18    25    26   ar
    19    26    27   ar
    20    27    28    1
    21    26    29    1
    22    29    30    1
    23    30    31    1
    24    31    32    2
    25     4     5    1
    26     5     6    1
    27    12    13   ar
    28    13    14   ar
    29    14    15   ar
    30    15    18    1
    31    18    19    3
    32    15    10   ar
    33     6     1    1
    34    27    22   ar
    35    31    25    1
