@<TRIPOS>MOLECULE
*****
 39 42 0 0 0
SMALL
GASTEIGER

@<TRIPOS>ATOM
      1 C         139.6469  140.0873  168.1794 C.ar    1  UNL1        0.1132
      2 N         138.4377  139.4963  168.8414 N.ar    1  UNL1       -0.1462
      3 N         137.7387  138.6269  167.8386 N.ar    1  UNL1       -0.1301
      4 C         138.5159  138.6806  166.5568 C.ar    1  UNL1        0.1700
      5 N         138.3021  138.0243  165.2251 N.ar    1  UNL1       -0.3105
      6 C         139.2678  138.2705  164.1039 C.ar    1  UNL1        0.1982
      7 N         140.4471  139.1731  164.3145 N.ar    1  UNL1       -0.1805
      8 C         140.6609  139.8295  165.6463 C.ar    1  UNL1        0.2317
      9 C         139.6953  139.5832  166.7674 C.ar    1  UNL1        0.1083
     10 H         137.5281  137.4318  165.0870 H       1  UNL1        0.1701
     11 C         141.9817  140.5106  169.2374 C.ar    1  UNL1        0.1402
     12 C         142.9694  141.4422  169.8753 C.ar    1  UNL1        0.0370
     13 C         142.6097  142.8821  170.0930 C.ar    1  UNL1        0.0031
     14 C         141.2624  143.3903  169.6728 C.ar    1  UNL1        0.0003
     15 C         140.2748  142.4588  169.0349 C.ar    1  UNL1        0.0046
     16 C         140.6345  141.0189  168.8172 C.ar    1  UNL1        0.0536
     17 C         142.8884  138.2546  170.1533 C.3     1  UNL1        0.2525
     18 O         142.3414  139.0708  169.0198 O.3     1  UNL1       -0.4714
     19 N         139.0539  137.6142  162.7722 N.pl3   1  UNL1       -0.3060
     20 H         138.9484  136.6369  162.7164 H       1  UNL1        0.1495
     21 C         139.0010  138.4467  161.5257 C.3     1  UNL1        0.0718
     22 C         137.7762  139.2552  161.2152 C.3     1  UNL1        0.0210
     23 C         137.7233  140.0878  159.9686 C.3     1  UNL1        0.0191
     24 C         138.8951  140.1119  159.0325 C.3     1  UNL1        0.0752
     25 C         140.1198  139.3035  159.3430 C.3     1  UNL1        0.0191
     26 C         140.1728  138.4709  160.5895 C.3     1  UNL1        0.0210
     27 N         138.8422  140.9445  157.7858 N.3     1  UNL1       -0.1847
     28 H         139.7250  140.7983  157.2964 H       1  UNL1        0.1484
     29 S         137.7491  140.7240  156.7825 S.O2    1  UNL1        0.0410
     30 O         137.1905  142.0811  157.0930 O.2     1  UNL1       -0.1575
     31 O         138.3078  139.3670  156.4721 O.2     1  UNL1       -0.1575
     32 C         136.6560  140.5036  155.7793 C.3     1  UNL1        0.1776
     33 C         135.2480  140.9067  156.1034 C.3     1  UNL1        0.1302
     34 C         134.1467  139.8895  156.0552 C.3     1  UNL1        0.3995
     35 F         133.0453  138.8723  156.0069 F       1  UNL1       -0.1700
     36 F         134.1977  139.9053  154.5561 F       1  UNL1       -0.1700
     37 F         134.0956  139.8738  157.5542 F       1  UNL1       -0.1700
     38 O         141.8403  140.7321  165.8569 O.3     1  UNL1       -0.4560
     39 C         143.2318  140.2042  165.6688 C.3     1  UNL1        0.2542
@<TRIPOS>BOND
     1    17    18    1
     2    18    11    1
     3    11    12   ar
     4    12    13   ar
     5    13    14   ar
     6    14    15   ar
     7    15    16   ar
     8    16     1    1
     9     1     2   ar
    10     2     3   ar
    11     3     4   ar
    12     4     5   ar
    13     5     6   ar
    14     6    19    1
    15    21    19    1
    16    21    22    1
    17    22    23    1
    18    23    24    1
    19    24    27    1
    20    27    29    1
    21    29    30    2
    22    29    31    2
    23    29    32    1
    24    32    33    1
    25    33    34    1
    26    34    35    1
    27    34    36    1
    28    34    37    1
    29    24    25    1
    30    25    26    1
    31     6     7   ar
    32     7     8   ar
    33     8    38    1
    34    38    39    1
    35     8     9   ar
    36    16    11   ar
    37     9     1   ar
    38     9     4    1
    39    26    21    1
    40     5    10    1
    41    19    20    1
    42    27    28    1
@<TRIPOS>MOLECULE
*****
 39 42 0 0 0
SMALL
GASTEIGER

@<TRIPOS>ATOM
      1 C         139.9193  139.8214  168.0052 C.ar    1  UNL1        0.1132
      2 N         138.6012  139.4925  168.6411 N.ar    1  UNL1       -0.1462
      3 N         137.7590  138.7839  167.6220 N.ar    1  UNL1       -0.1301
      4 C         138.5566  138.6749  166.3563 C.ar    1  UNL1        0.1700
      5 N         138.2396  138.0746  165.0188 N.ar    1  UNL1       -0.3105
      6 C         139.2578  138.1155  163.9180 C.ar    1  UNL1        0.1982
      7 N         140.5929  138.7567  164.1548 N.ar    1  UNL1       -0.1805
      8 C         140.9099  139.3570  165.4925 C.ar    1  UNL1        0.2317
      9 C         139.8918  139.3161  166.5932 C.ar    1  UNL1        0.1083
     10 H         137.3632  137.6537  164.8633 H       1  UNL1        0.1701
     11 C         141.2425  142.0079  168.4728 C.ar    1  UNL1        0.1402
     12 C         142.3872  142.7176  169.1331 C.ar    1  UNL1        0.0370
     13 C         143.3536  141.9504  169.9860 C.ar    1  UNL1        0.0031
     14 C         143.1752  140.4736  170.1787 C.ar    1  UNL1        0.0003
     15 C         142.0305  139.7639  169.5184 C.ar    1  UNL1        0.0046
     16 C         141.0641  140.5310  168.6655 C.ar    1  UNL1        0.0536
     17 C         140.5810  143.0148  166.1708 C.3     1  UNL1        0.2525
     18 O         140.2761  142.7751  167.6199 O.3     1  UNL1       -0.4714
     19 N         138.9407  137.5152  162.5804 N.pl3   1  UNL1       -0.3060
     20 H         138.7431  136.5535  162.5068 H       1  UNL1        0.1495
     21 C         138.9249  138.3800  161.3550 C.3     1  UNL1        0.0718
     22 C         137.7723  139.3072  161.1062 C.3     1  UNL1        0.0210
     23 C         137.7565  140.1720  159.8807 C.3     1  UNL1        0.0191
     24 C         138.8933  140.1098  158.9041 C.3     1  UNL1        0.0752
     25 C         140.0459  139.1827  159.1529 C.3     1  UNL1        0.0191
     26 C         140.0617  138.3178  160.3783 C.3     1  UNL1        0.0210
     27 N         138.8775  140.9747  157.6786 N.3     1  UNL1       -0.1847
     28 H         139.5017  140.5368  157.0011 H       1  UNL1        0.1484
     29 S         137.5848  141.2427  156.9664 S.O2    1  UNL1        0.0410
     30 O         137.5681  142.6362  157.5211 O.2     1  UNL1       -0.1575
     31 O         137.6016  139.8491  156.4116 O.2     1  UNL1       -0.1575
     32 C         136.2922  141.5106  156.2541 C.3     1  UNL1        0.1776
     33 C         135.7607  140.5160  155.2650 C.3     1  UNL1        0.1302
     34 C         134.4282  139.8671  155.4962 C.3     1  UNL1        0.3995
     35 F         133.0957  139.2182  155.7273 F       1  UNL1       -0.1700
     36 F         135.0034  138.5420  155.0922 F       1  UNL1       -0.1700
     37 F         133.8530  141.1922  155.9001 F       1  UNL1       -0.1700
     38 O         142.2451  139.9982  165.7293 O.3     1  UNL1       -0.4560
     39 C         143.4636  139.1446  165.9212 C.3     1  UNL1        0.2542
@<TRIPOS>BOND
     1    17    18    1
     2    18    11    1
     3    11    12   ar
     4    12    13   ar
     5    13    14   ar
     6    14    15   ar
     7    15    16   ar
     8    16     1    1
     9     1     2   ar
    10     2     3   ar
    11     3     4   ar
    12     4     5   ar
    13     5     6   ar
    14     6    19    1
    15    21    19    1
    16    21    22    1
    17    22    23    1
    18    23    24    1
    19    24    27    1
    20    27    29    1
    21    29    30    2
    22    29    31    2
    23    29    32    1
    24    32    33    1
    25    33    34    1
    26    34    35    1
    27    34    36    1
    28    34    37    1
    29    24    25    1
    30    25    26    1
    31     6     7   ar
    32     7     8   ar
    33     8    38    1
    34    38    39    1
    35     8     9   ar
    36    16    11   ar
    37     9     1   ar
    38     9     4    1
    39    26    21    1
    40     5    10    1
    41    19    20    1
    42    27    28    1
@<TRIPOS>MOLECULE
*****
 39 42 0 0 0
SMALL
GASTEIGER

@<TRIPOS>ATOM
      1 C         139.6927  140.1946  168.2909 C.ar    1  UNL1        0.1132
      2 N         138.5013  139.5747  168.9587 N.ar    1  UNL1       -0.1462
      3 N         137.7979  138.7172  167.9488 N.ar    1  UNL1       -0.1301
      4 C         138.5546  138.8072  166.6568 C.ar    1  UNL1        0.1700
      5 N         138.3286  138.1757  165.3152 N.ar    1  UNL1       -0.3105
      6 C         139.2737  138.4573  164.1849 C.ar    1  UNL1        0.1982
      7 N         140.4449  139.3704  164.3963 N.ar    1  UNL1       -0.1805
      8 C         140.6708  140.0019  165.7380 C.ar    1  UNL1        0.2317
      9 C         139.7257  139.7203  166.8682 C.ar    1  UNL1        0.1083
     10 H         137.5600  137.5764  165.1764 H       1  UNL1        0.1701
     11 C         142.0449  140.6311  169.3042 C.ar    1  UNL1        0.1402
     12 C         143.0305  141.5619  169.9463 C.ar    1  UNL1        0.0370
     13 C         142.6494  142.9871  170.2172 C.ar    1  UNL1        0.0031
     14 C         141.2828  143.4815  169.8459 C.ar    1  UNL1        0.0003
     15 C         140.2971  142.5507  169.2038 C.ar    1  UNL1        0.0046
     16 C         140.6783  141.1255  168.9330 C.ar    1  UNL1        0.0536
     17 C         142.8423  138.3128  170.1644 C.3     1  UNL1        0.2525
     18 O         142.4260  139.2058  169.0333 O.3     1  UNL1       -0.4714
     19 N         139.0477  137.8257  162.8432 N.pl3   1  UNL1       -0.3060
     20 H         138.9995  136.8458  162.7623 H       1  UNL1        0.1495
     21 C         138.8952  138.6873  161.6249 C.3     1  UNL1        0.0718
     22 C         139.5295  138.2742  160.3299 C.3     1  UNL1        0.0210
     23 C         139.3770  139.1358  159.1115 C.3     1  UNL1        0.0191
     24 C         138.5902  140.4106  159.1882 C.3     1  UNL1        0.0752
     25 C         137.9560  140.8238  160.4832 C.3     1  UNL1        0.0191
     26 C         138.1084  139.9622  161.7015 C.3     1  UNL1        0.0210
     27 N         138.4377  141.2723  157.9698 N.3     1  UNL1       -0.1847
     28 H         139.3522  141.6840  157.7840 H       1  UNL1        0.1484
     29 S         137.9636  140.6705  156.6802 S.O2    1  UNL1        0.0410
     30 O         136.6020  140.4668  157.2759 O.2     1  UNL1       -0.1575
     31 O         139.3251  140.8742  156.0846 O.2     1  UNL1       -0.1575
     32 C         137.4894  140.0688  155.3906 C.3     1  UNL1        0.1776
     33 C         138.0970  138.7916  154.8908 C.3     1  UNL1        0.1302
     34 C         137.2882  137.8597  154.0379 C.3     1  UNL1        0.3995
     35 F         136.4794  136.9279  153.1850 F       1  UNL1       -0.1700
     36 F         138.5017  137.0051  153.8209 F       1  UNL1       -0.1700
     37 F         136.0747  138.7144  154.2549 F       1  UNL1       -0.1700
     38 O         141.8420  140.9150  165.9495 O.3     1  UNL1       -0.4560
     39 C         141.7286  142.3714  165.6086 C.3     1  UNL1        0.2542
@<TRIPOS>BOND
     1    17    18    1
     2    18    11    1
     3    11    12   ar
     4    12    13   ar
     5    13    14   ar
     6    14    15   ar
     7    15    16   ar
     8    16     1    1
     9     1     2   ar
    10     2     3   ar
    11     3     4   ar
    12     4     5   ar
    13     5     6   ar
    14     6    19    1
    15    21    19    1
    16    21    22    1
    17    22    23    1
    18    23    24    1
    19    24    27    1
    20    27    29    1
    21    29    30    2
    22    29    31    2
    23    29    32    1
    24    32    33    1
    25    33    34    1
    26    34    35    1
    27    34    36    1
    28    34    37    1
    29    24    25    1
    30    25    26    1
    31     6     7   ar
    32     7     8   ar
    33     8    38    1
    34    38    39    1
    35     8     9   ar
    36    16    11   ar
    37     9     1   ar
    38     9     4    1
    39    26    21    1
    40     5    10    1
    41    19    20    1
    42    27    28    1
@<TRIPOS>MOLECULE
*****
 39 42 0 0 0
SMALL
GASTEIGER

@<TRIPOS>ATOM
      1 C         143.0312  139.6176  160.0412 C.ar    1  UNL1        0.1132
      2 N         144.1012  138.6040  160.3200 N.ar    1  UNL1       -0.1462
      3 N         143.6160  137.7090  161.4216 N.ar    1  UNL1       -0.1301
      4 C         142.2462  138.1694  161.8236 C.ar    1  UNL1        0.1700
      5 N         141.2813  137.6670  162.8563 N.ar    1  UNL1       -0.3105
      6 C         139.9549  138.3442  163.0359 C.ar    1  UNL1        0.1982
      7 N         139.5934  139.5238  162.1827 N.ar    1  UNL1       -0.1805
      8 C         140.5584  140.0262  161.1500 C.ar    1  UNL1        0.2317
      9 C         141.8847  139.3491  160.9705 C.ar    1  UNL1        0.1083
     10 H         141.5185  136.8927  163.4162 H       1  UNL1        0.1701
     11 C         143.8141  141.9886  159.3230 C.ar    1  UNL1        0.1402
     12 C         143.8792  143.0794  158.2954 C.ar    1  UNL1        0.0370
     13 C         143.2264  142.8899  156.9583 C.ar    1  UNL1        0.0031
     14 C         142.5085  141.6098  156.6488 C.ar    1  UNL1        0.0003
     15 C         142.4434  140.5189  157.6764 C.ar    1  UNL1        0.0046
     16 C         143.0962  140.7084  159.0136 C.ar    1  UNL1        0.0536
     17 C         143.9734  143.2455  161.5914 C.3     1  UNL1        0.2525
     18 O         144.4669  142.1780  160.6602 O.3     1  UNL1       -0.4714
     19 N         138.9900  137.8417  164.0685 N.pl3   1  UNL1       -0.3060
     20 H         138.3765  137.1031  163.8509 H       1  UNL1        0.1495
     21 C         138.9597  138.4646  165.4327 C.3     1  UNL1        0.0718
     22 C         137.8753  138.0965  166.4014 C.3     1  UNL1        0.0210
     23 C         137.8451  138.7195  167.7657 C.3     1  UNL1        0.0191
     24 C         138.8993  139.7105  168.1611 C.3     1  UNL1        0.0752
     25 C         139.9838  140.0786  167.1924 C.3     1  UNL1        0.0191
     26 C         140.0140  139.4557  165.8282 C.3     1  UNL1        0.0210
     27 N         138.8692  140.3335  169.5253 N.3     1  UNL1       -0.1847
     28 H         138.4405  139.6515  170.1511 H       1  UNL1        0.1484
     29 S         140.1461  140.7757  170.1763 S.O2    1  UNL1        0.0410
     30 O         139.7480  142.2090  169.9836 O.2     1  UNL1       -0.1575
     31 O         140.5443  139.3424  170.3690 O.2     1  UNL1       -0.1575
     32 C         141.4231  141.2180  170.8272 C.3     1  UNL1        0.1776
     33 C         142.7393  140.9360  170.1651 C.3     1  UNL1        0.1302
     34 C         142.9905  141.4090  168.7639 C.3     1  UNL1        0.3995
     35 F         143.2417  141.8820  167.3628 F       1  UNL1       -0.1700
     36 F         143.1298  139.9865  168.3087 F       1  UNL1       -0.1700
     37 F         142.8512  142.8314  169.2191 F       1  UNL1       -0.1700
     38 O         140.1970  141.2059  160.2969 O.3     1  UNL1       -0.4560
     39 C         140.3284  142.5961  160.8448 C.3     1  UNL1        0.2542
@<TRIPOS>BOND
     1    17    18    1
     2    18    11    1
     3    11    12   ar
     4    12    13   ar
     5    13    14   ar
     6    14    15   ar
     7    15    16   ar
     8    16     1    1
     9     1     2   ar
    10     2     3   ar
    11     3     4   ar
    12     4     5   ar
    13     5     6   ar
    14     6    19    1
    15    21    19    1
    16    21    22    1
    17    22    23    1
    18    23    24    1
    19    24    27    1
    20    27    29    1
    21    29    30    2
    22    29    31    2
    23    29    32    1
    24    32    33    1
    25    33    34    1
    26    34    35    1
    27    34    36    1
    28    34    37    1
    29    24    25    1
    30    25    26    1
    31     6     7   ar
    32     7     8   ar
    33     8    38    1
    34    38    39    1
    35     8     9   ar
    36    16    11   ar
    37     9     1   ar
    38     9     4    1
    39    26    21    1
    40     5    10    1
    41    19    20    1
    42    27    28    1
@<TRIPOS>MOLECULE
*****
 39 42 0 0 0
SMALL
GASTEIGER

@<TRIPOS>ATOM
      1 C         140.1594  142.7093  160.1984 C.ar    1  UNL1        0.1132
      2 N         139.1269  143.7639  160.4659 N.ar    1  UNL1       -0.1462
      3 N         138.2597  143.2880  161.5935 N.ar    1  UNL1       -0.1301
      4 C         138.7563  141.9393  162.0228 C.ar    1  UNL1        0.1700
      5 N         138.2910  140.9906  163.0875 N.ar    1  UNL1       -0.3105
      6 C         138.9999  139.6843  163.2900 C.ar    1  UNL1        0.1982
      7 N         140.1740  139.3266  162.4278 N.ar    1  UNL1       -0.1805
      8 C         140.6393  140.2753  161.3631 C.ar    1  UNL1        0.2317
      9 C         139.9304  141.5816  161.1606 C.ar    1  UNL1        0.1083
     10 H         137.5204  141.2254  163.6534 H       1  UNL1        0.1701
     11 C         142.5598  143.3913  159.4752 C.ar    1  UNL1        0.1402
     12 C         143.6331  143.4535  158.4291 C.ar    1  UNL1        0.0370
     13 C         143.3792  142.8957  157.0601 C.ar    1  UNL1        0.0031
     14 C         142.0520  142.2758  156.7371 C.ar    1  UNL1        0.0003
     15 C         140.9787  142.2136  157.7832 C.ar    1  UNL1        0.0046
     16 C         141.2327  142.7714  159.1523 C.ar    1  UNL1        0.0536
     17 C         143.5207  143.1180  161.8736 C.3     1  UNL1        0.2525
     18 O         142.8137  143.9491  160.8443 O.3     1  UNL1       -0.4714
     19 N         138.5346  138.7356  164.3547 N.pl3   1  UNL1       -0.3060
     20 H         138.1270  137.8754  164.1036 H       1  UNL1        0.1495
     21 C         138.6904  139.0977  165.8020 C.3     1  UNL1        0.0718
     22 C         139.8080  140.0005  166.2331 C.3     1  UNL1        0.0210
     23 C         139.9638  140.3626  167.6804 C.3     1  UNL1        0.0191
     24 C         139.0020  139.8218  168.6965 C.3     1  UNL1        0.0752
     25 C         137.8844  138.9190  168.2654 C.3     1  UNL1        0.0191
     26 C         137.7286  138.5569  166.8182 C.3     1  UNL1        0.0210
     27 N         139.1578  140.1839  170.1439 N.3     1  UNL1       -0.1847
     28 H         139.3285  139.3139  170.6483 H       1  UNL1        0.1484
     29 S         140.2287  141.1460  170.5652 S.O2    1  UNL1        0.0410
     30 O         139.2207  142.2566  170.5912 O.2     1  UNL1       -0.1575
     31 O         141.2367  140.0355  170.5392 O.2     1  UNL1       -0.1575
     32 C         141.2996  142.1081  170.9866 C.3     1  UNL1        0.1776
     33 C         142.1233  142.8142  169.9507 C.3     1  UNL1        0.1302
     34 C         143.6208  142.7712  170.0262 C.3     1  UNL1        0.3995
     35 F         145.1183  142.7282  170.1017 F       1  UNL1       -0.1700
     36 F         143.5979  143.8324  171.0860 F       1  UNL1       -0.1700
     37 F         143.6438  141.7100  168.9663 F       1  UNL1       -0.1700
     38 O         141.8134  139.9176  160.5008 O.3     1  UNL1       -0.4560
     39 C         141.6449  138.9480  159.3687 C.3     1  UNL1        0.2542
@<TRIPOS>BOND
     1    17    18    1
     2    18    11    1
     3    11    12   ar
     4    12    13   ar
     5    13    14   ar
     6    14    15   ar
     7    15    16   ar
     8    16     1    1
     9     1     2   ar
    10     2     3   ar
    11     3     4   ar
    12     4     5   ar
    13     5     6   ar
    14     6    19    1
    15    21    19    1
    16    21    22    1
    17    22    23    1
    18    23    24    1
    19    24    27    1
    20    27    29    1
    21    29    30    2
    22    29    31    2
    23    29    32    1
    24    32    33    1
    25    33    34    1
    26    34    35    1
    27    34    36    1
    28    34    37    1
    29    24    25    1
    30    25    26    1
    31     6     7   ar
    32     7     8   ar
    33     8    38    1
    34    38    39    1
    35     8     9   ar
    36    16    11   ar
    37     9     1   ar
    38     9     4    1
    39    26    21    1
    40     5    10    1
    41    19    20    1
    42    27    28    1
@<TRIPOS>MOLECULE
*****
 39 42 0 0 0
SMALL
GASTEIGER

@<TRIPOS>ATOM
      1 C         139.2385  142.0513  158.0608 C.ar    1  UNL1        0.1132
      2 N         138.8967  140.6830  157.5498 N.ar    1  UNL1       -0.1462
      3 N         138.2745  139.9102  158.6748 N.ar    1  UNL1       -0.1301
      4 C         138.2319  140.8008  159.8811 C.ar    1  UNL1        0.1700
      5 N         137.7275  140.5778  161.2760 N.ar    1  UNL1       -0.3105
      6 C         137.8189  141.6780  162.2915 C.ar    1  UNL1        0.1982
      7 N         138.4147  143.0013  161.9120 N.ar    1  UNL1       -0.1805
      8 C         138.9191  143.2243  160.5170 C.ar    1  UNL1        0.2317
      9 C         138.8277  142.1241  159.5016 C.ar    1  UNL1        0.1083
     10 H         137.3365  139.7093  161.5251 H       1  UNL1        0.1701
     11 C         141.3574  143.3858  157.3685 C.ar    1  UNL1        0.1402
     12 C         141.9978  144.4879  156.5776 C.ar    1  UNL1        0.0370
     13 C         141.1596  145.3573  155.6880 C.ar    1  UNL1        0.0031
     14 C         139.6810  145.1247  155.5893 C.ar    1  UNL1        0.0003
     15 C         139.0406  144.0227  156.3802 C.ar    1  UNL1        0.0046
     16 C         139.8788  143.1533  157.2698 C.ar    1  UNL1        0.0536
     17 C         142.6952  143.0459  159.5697 C.3     1  UNL1        0.2525
     18 O         142.1956  142.5164  158.2581 O.3     1  UNL1       -0.4714
     19 N         137.3145  141.4550  163.6864 N.pl3   1  UNL1       -0.3060
     20 H         136.3669  141.6165  163.8989 H       1  UNL1        0.1495
     21 C         138.2539  140.9859  164.7575 C.3     1  UNL1        0.0718
     22 C         138.2618  139.5435  165.1691 C.3     1  UNL1        0.0210
     23 C         139.2013  139.0744  166.2403 C.3     1  UNL1        0.0191
     24 C         140.1328  140.0476  166.8998 C.3     1  UNL1        0.0752
     25 C         140.1250  141.4900  166.4882 C.3     1  UNL1        0.0191
     26 C         139.1855  141.9591  165.4170 C.3     1  UNL1        0.0210
     27 N         141.0723  139.5785  167.9710 N.3     1  UNL1       -0.1847
     28 H         142.0151  139.8099  167.6578 H       1  UNL1        0.1484
     29 S         140.9389  140.1054  169.3690 S.O2    1  UNL1        0.0410
     30 O         139.4885  139.7231  169.3747 O.2     1  UNL1       -0.1575
     31 O         142.3893  140.4878  169.3633 O.2     1  UNL1       -0.1575
     32 C         140.8055  140.6324  170.7671 C.3     1  UNL1        0.1776
     33 C         141.1946  142.0479  171.0754 C.3     1  UNL1        0.1302
     34 C         140.6216  143.1757  170.2694 C.3     1  UNL1        0.3995
     35 F         140.0486  144.3036  169.4633 F       1  UNL1       -0.1700
     36 F         142.0079  143.6418  169.9361 F       1  UNL1       -0.1700
     37 F         139.2354  142.7097  170.6027 F       1  UNL1       -0.1700
     38 O         139.5148  144.5476  160.1375 O.3     1  UNL1       -0.4560
     39 C         140.1585  145.4081  161.1841 C.3     1  UNL1        0.2542
@<TRIPOS>BOND
     1    17    18    1
     2    18    11    1
     3    11    12   ar
     4    12    13   ar
     5    13    14   ar
     6    14    15   ar
     7    15    16   ar
     8    16     1    1
     9     1     2   ar
    10     2     3   ar
    11     3     4   ar
    12     4     5   ar
    13     5     6   ar
    14     6    19    1
    15    21    19    1
    16    21    22    1
    17    22    23    1
    18    23    24    1
    19    24    27    1
    20    27    29    1
    21    29    30    2
    22    29    31    2
    23    29    32    1
    24    32    33    1
    25    33    34    1
    26    34    35    1
    27    34    36    1
    28    34    37    1
    29    24    25    1
    30    25    26    1
    31     6     7   ar
    32     7     8   ar
    33     8    38    1
    34    38    39    1
    35     8     9   ar
    36    16    11   ar
    37     9     1   ar
    38     9     4    1
    39    26    21    1
    40     5    10    1
    41    19    20    1
    42    27    28    1
@<TRIPOS>MOLECULE
*****
 39 42 0 0 0
SMALL
GASTEIGER

@<TRIPOS>ATOM
      1 C         142.3659  140.0918  167.9042 C.ar    1  UNL1        0.1132
      2 N         143.1120  138.8866  168.3946 N.ar    1  UNL1       -0.1462
      3 N         143.6669  138.1675  167.2008 N.ar    1  UNL1       -0.1301
      4 C         143.2636  138.9284  165.9726 C.ar    1  UNL1        0.1700
      5 N         143.5246  138.6919  164.5146 N.ar    1  UNL1       -0.3105
      6 C         142.9816  139.6448  163.4912 C.ar    1  UNL1        0.1982
      7 N         142.1775  140.8341  163.9260 N.ar    1  UNL1       -0.1805
      8 C         141.9165  141.0705  165.3841 C.ar    1  UNL1        0.2317
      9 C         142.4595  140.1177  166.4074 C.ar    1  UNL1        0.1083
     10 H         144.0524  137.9113  164.2293 H       1  UNL1        0.1701
     11 C         140.2363  140.8429  169.1891 C.ar    1  UNL1        0.1402
     12 C         139.5218  141.8462  170.0452 C.ar    1  UNL1        0.0370
     13 C         140.2225  143.1017  170.4727 C.ar    1  UNL1        0.0031
     14 C         141.6376  143.3539  170.0440 C.ar    1  UNL1        0.0003
     15 C         142.3521  142.3506  169.1878 C.ar    1  UNL1        0.0046
     16 C         141.6514  141.0951  168.7604 C.ar    1  UNL1        0.0536
     17 C         138.8121  139.5421  167.4483 C.3     1  UNL1        0.2525
     18 O         139.5356  139.5874  168.7616 O.3     1  UNL1       -0.4714
     19 N         143.2427  139.4083  162.0332 N.pl3   1  UNL1       -0.3060
     20 H         143.4046  138.4947  161.7040 H       1  UNL1        0.1495
     21 C         143.2571  140.5638  161.0769 C.3     1  UNL1        0.0718
     22 C         144.3379  141.5998  161.1685 C.3     1  UNL1        0.0210
     23 C         144.3522  142.7553  160.2121 C.3     1  UNL1        0.0191
     24 C         143.2858  142.8747  159.1641 C.3     1  UNL1        0.0752
     25 C         142.2050  141.8387  159.0724 C.3     1  UNL1        0.0191
     26 C         142.1906  140.6832  160.0288 C.3     1  UNL1        0.0210
     27 N         143.3002  144.0302  158.2077 N.3     1  UNL1       -0.1847
     28 H         143.6603  143.6749  157.3220 H       1  UNL1        0.1484
     29 S         142.0281  144.7614  157.8957 S.O2    1  UNL1        0.0410
     30 O         142.0808  144.2517  156.4860 O.2     1  UNL1       -0.1575
     31 O         141.9754  145.2712  159.3055 O.2     1  UNL1       -0.1575
     32 C         140.7561  145.4926  157.5838 C.3     1  UNL1        0.1776
     33 C         140.6527  146.3191  156.3362 C.3     1  UNL1        0.1302
     34 C         139.3147  146.5512  155.6991 C.3     1  UNL1        0.3995
     35 F         137.9767  146.7833  155.0620 F       1  UNL1       -0.1700
     36 F         138.9834  147.5571  156.7613 F       1  UNL1       -0.1700
     37 F         139.6460  145.5452  154.6369 F       1  UNL1       -0.1700
     38 O         141.1124  142.2598  165.8188 O.3     1  UNL1       -0.4560
     39 C         140.8534  143.3820  164.8577 C.3     1  UNL1        0.2542
@<TRIPOS>BOND
     1    17    18    1
     2    18    11    1
     3    11    12   ar
     4    12    13   ar
     5    13    14   ar
     6    14    15   ar
     7    15    16   ar
     8    16     1    1
     9     1     2   ar
    10     2     3   ar
    11     3     4   ar
    12     4     5   ar
    13     5     6   ar
    14     6    19    1
    15    21    19    1
    16    21    22    1
    17    22    23    1
    18    23    24    1
    19    24    27    1
    20    27    29    1
    21    29    30    2
    22    29    31    2
    23    29    32    1
    24    32    33    1
    25    33    34    1
    26    34    35    1
    27    34    36    1
    28    34    37    1
    29    24    25    1
    30    25    26    1
    31     6     7   ar
    32     7     8   ar
    33     8    38    1
    34    38    39    1
    35     8     9   ar
    36    16    11   ar
    37     9     1   ar
    38     9     4    1
    39    26    21    1
    40     5    10    1
    41    19    20    1
    42    27    28    1
@<TRIPOS>MOLECULE
*****
 39 42 0 0 0
SMALL
GASTEIGER

@<TRIPOS>ATOM
      1 C         138.9058  139.1117  161.6454 C.ar    1  UNL1        0.1132
      2 N         137.8163  139.6000  160.7372 N.ar    1  UNL1       -0.1462
      3 N         138.3116  139.5017  159.3248 N.ar    1  UNL1       -0.1301
      4 C         139.7071  138.9528  159.3600 C.ar    1  UNL1        0.1700
      5 N         140.6909  138.6413  158.2714 N.ar    1  UNL1       -0.3105
      6 C         142.0420  138.0887  158.6170 C.ar    1  UNL1        0.1982
      7 N         142.4092  137.8476  160.0512 N.ar    1  UNL1       -0.1805
      8 C         141.4253  138.1592  161.1399 C.ar    1  UNL1        0.2317
      9 C         140.0743  138.7117  160.7942 C.ar    1  UNL1        0.1083
     10 H         140.4499  138.7995  157.3300 H       1  UNL1        0.1701
     11 C         138.8024  140.2964  163.9553 C.ar    1  UNL1        0.1402
     12 C         138.7351  140.2214  165.4519 C.ar    1  UNL1        0.0370
     13 C         138.7038  138.8865  166.1352 C.ar    1  UNL1        0.0031
     14 C         138.7399  137.6266  165.3219 C.ar    1  UNL1        0.0003
     15 C         138.8072  137.7016  163.8253 C.ar    1  UNL1        0.0046
     16 C         138.8385  139.0366  163.1420 C.ar    1  UNL1        0.0536
     17 C         137.5671  142.4167  163.1017 C.3     1  UNL1        0.2525
     18 O         138.8337  141.6314  163.2720 O.3     1  UNL1       -0.4714
     19 N         143.0258  137.7772  157.5284 N.pl3   1  UNL1       -0.3060
     20 H         143.8332  138.3303  157.4215 H       1  UNL1        0.1495
     21 C         142.7794  136.6230  156.6026 C.3     1  UNL1        0.0718
     22 C         141.4604  136.4933  155.9001 C.3     1  UNL1        0.0210
     23 C         141.2140  135.3390  154.9743 C.3     1  UNL1        0.0191
     24 C         142.2866  134.3145  154.7511 C.3     1  UNL1        0.0752
     25 C         143.6056  134.4441  155.4536 C.3     1  UNL1        0.0191
     26 C         143.8520  135.5983  156.3794 C.3     1  UNL1        0.0210
     27 N         142.0402  133.1602  153.8253 N.3     1  UNL1       -0.1847
     28 H         142.6382  133.3027  153.0114 H       1  UNL1        0.1484
     29 S         142.2783  131.7563  154.2971 S.O2    1  UNL1        0.0410
     30 O         141.2003  131.9198  155.3273 O.2     1  UNL1       -0.1575
     31 O         143.3563  131.5929  153.2669 O.2     1  UNL1       -0.1575
     32 C         142.5164  130.3525  154.7689 C.3     1  UNL1        0.1776
     33 C         143.3140  130.1052  156.0150 C.3     1  UNL1        0.1302
     34 C         144.4388  131.0276  156.3809 C.3     1  UNL1        0.3995
     35 F         145.5637  131.9501  156.7468 F       1  UNL1       -0.1700
     36 F         143.5631  131.6903  157.4026 F       1  UNL1       -0.1700
     37 F         145.3146  130.3650  155.3592 F       1  UNL1       -0.1700
     38 O         141.7925  137.9181  162.5741 O.3     1  UNL1       -0.4560
     39 C         142.6800  138.8894  163.2945 C.3     1  UNL1        0.2542
@<TRIPOS>BOND
     1    17    18    1
     2    18    11    1
     3    11    12   ar
     4    12    13   ar
     5    13    14   ar
     6    14    15   ar
     7    15    16   ar
     8    16     1    1
     9     1     2   ar
    10     2     3   ar
    11     3     4   ar
    12     4     5   ar
    13     5     6   ar
    14     6    19    1
    15    21    19    1
    16    21    22    1
    17    22    23    1
    18    23    24    1
    19    24    27    1
    20    27    29    1
    21    29    30    2
    22    29    31    2
    23    29    32    1
    24    32    33    1
    25    33    34    1
    26    34    35    1
    27    34    36    1
    28    34    37    1
    29    24    25    1
    30    25    26    1
    31     6     7   ar
    32     7     8   ar
    33     8    38    1
    34    38    39    1
    35     8     9   ar
    36    16    11   ar
    37     9     1   ar
    38     9     4    1
    39    26    21    1
    40     5    10    1
    41    19    20    1
    42    27    28    1
@<TRIPOS>MOLECULE
*****
 39 42 0 0 0
SMALL
GASTEIGER

@<TRIPOS>ATOM
      1 C         138.4994  141.3301  163.4838 C.ar    1  UNL1        0.1132
      2 N         137.8354  142.6390  163.1744 N.ar    1  UNL1       -0.1462
      3 N         137.6594  142.7294  161.6875 N.ar    1  UNL1       -0.1301
      4 C         138.2146  141.4763  161.0780 C.ar    1  UNL1        0.1700
      5 N         138.3145  141.0110  159.6555 N.ar    1  UNL1       -0.3105
      6 C         138.9336  139.6809  159.3432 C.ar    1  UNL1        0.1982
      7 N         139.4528  138.8160  160.4534 N.ar    1  UNL1       -0.1805
      8 C         139.3529  139.2814  161.8759 C.ar    1  UNL1        0.2317
      9 C         138.7338  140.6115  162.1882 C.ar    1  UNL1        0.1083
     10 H         137.9738  141.5786  158.9268 H       1  UNL1        0.1701
     11 C         140.0788  141.3667  165.5463 C.ar    1  UNL1        0.1402
     12 C         140.4444  140.8645  166.9117 C.ar    1  UNL1        0.0370
     13 C         139.5959  139.8236  167.5800 C.ar    1  UNL1        0.0031
     14 C         138.3820  139.2848  166.8828 C.ar    1  UNL1        0.0003
     15 C         138.0164  139.7870  165.5174 C.ar    1  UNL1        0.0046
     16 C         138.8649  140.8279  164.8492 C.ar    1  UNL1        0.0536
     17 C         140.5846  143.8608  165.0229 C.3     1  UNL1        0.2525
     18 O         140.9273  142.4076  164.8781 O.3     1  UNL1       -0.4714
     19 N         139.0336  139.2156  157.9207 N.pl3   1  UNL1       -0.3060
     20 H         138.3516  139.4874  157.2648 H       1  UNL1        0.1495
     21 C         140.1726  138.3361  157.4976 C.3     1  UNL1        0.0718
     22 C         139.9399  137.2299  156.5116 C.3     1  UNL1        0.0210
     23 C         141.0790  136.3504  156.0885 C.3     1  UNL1        0.0191
     24 C         142.4508  136.5771  156.6513 C.3     1  UNL1        0.0752
     25 C         142.6835  137.6834  157.6372 C.3     1  UNL1        0.0191
     26 C         141.5445  138.5628  158.0604 C.3     1  UNL1        0.0210
     27 N         143.5899  135.6976  156.2282 N.3     1  UNL1       -0.1847
     28 H         144.3969  135.9708  156.7890 H       1  UNL1        0.1484
     29 S         143.4685  134.2069  156.3414 S.O2    1  UNL1        0.0410
     30 O         143.5561  134.3131  157.8350 O.2     1  UNL1       -0.1575
     31 O         143.3810  134.1006  154.8477 O.2     1  UNL1       -0.1575
     32 C         143.3472  132.7161  156.4546 C.3     1  UNL1        0.1776
     33 C         144.5790  131.8602  156.4416 C.3     1  UNL1        0.1302
     34 C         144.8386  130.9024  157.5665 C.3     1  UNL1        0.3995
     35 F         145.0982  129.9446  158.6913 F       1  UNL1       -0.1700
     36 F         143.9912  129.8703  156.8832 F       1  UNL1       -0.1700
     37 F         145.6860  131.9344  158.2497 F       1  UNL1       -0.1700
     38 O         139.8720  138.4166  162.9861 O.3     1  UNL1       -0.4560
     39 C         141.0035  137.4657  162.7297 C.3     1  UNL1        0.2542
@<TRIPOS>BOND
     1    17    18    1
     2    18    11    1
     3    11    12   ar
     4    12    13   ar
     5    13    14   ar
     6    14    15   ar
     7    15    16   ar
     8    16     1    1
     9     1     2   ar
    10     2     3   ar
    11     3     4   ar
    12     4     5   ar
    13     5     6   ar
    14     6    19    1
    15    21    19    1
    16    21    22    1
    17    22    23    1
    18    23    24    1
    19    24    27    1
    20    27    29    1
    21    29    30    2
    22    29    31    2
    23    29    32    1
    24    32    33    1
    25    33    34    1
    26    34    35    1
    27    34    36    1
    28    34    37    1
    29    24    25    1
    30    25    26    1
    31     6     7   ar
    32     7     8   ar
    33     8    38    1
    34    38    39    1
    35     8     9   ar
    36    16    11   ar
    37     9     1   ar
    38     9     4    1
    39    26    21    1
    40     5    10    1
    41    19    20    1
    42    27    28    1
