@<TRIPOS>MOLECULE
*****
 32 35 0 0 0
SMALL
GASTEIGER

@<TRIPOS>ATOM
      1 C         141.7925  143.0867  163.4399 C.3     1  UNL1        0.1753
      2 C         141.6518  143.6842  162.0712 C.ar    1  UNL1        0.0089
      3 C         142.5179  143.6080  160.8489 C.ar    1  UNL1       -0.0021
      4 C         142.1115  144.3256  159.5960 C.ar    1  UNL1       -0.0003
      5 C         140.8391  145.1193  159.5653 C.ar    1  UNL1        0.0001
      6 C         139.9730  145.1955  160.7876 C.ar    1  UNL1        0.0043
      7 C         140.3794  144.4779  162.0405 C.ar    1  UNL1        0.0517
      8 C         139.7337  144.3710  163.3903 C.2     1  UNL1        0.2496
      9 O         138.4416  145.0115  163.8027 O.2     1  UNL1       -0.2699
     10 N         140.6071  143.5112  164.2551 N.am    1  UNL1       -0.2620
     11 N         142.8578  140.7323  163.7085 N.am    1  UNL1       -0.3059
     12 C         142.9206  142.2174  163.9106 C.2     1  UNL1        0.2448
     13 O         144.1115  142.8329  164.5835 O.2     1  UNL1       -0.2729
     14 H         142.0762  140.3282  163.2669 H       1  UNL1        0.1494
     15 C         143.2411  139.5855  165.4515 C.3     1  UNL1        0.0196
     16 C         143.9859  139.8630  164.1793 C.3     1  UNL1        0.0569
     17 C         144.7306  140.1404  162.9071 C.3     1  UNL1        0.0196
     18 C         145.1140  138.9937  164.6500 C.3     1  UNL1        0.0196
     19 C         140.3416  143.1409  165.6842 C.3     1  UNL1        0.1212
     20 C         139.7183  141.8166  166.0125 C.ar    1  UNL1       -0.0022
     21 C         138.8051  141.1521  165.0253 C.ar    1  UNL1       -0.0003
     22 C         138.1818  139.8279  165.3535 C.ar    1  UNL1        0.0294
     23 C         138.4717  139.1681  166.6691 C.ar    1  UNL1        0.1401
     24 F         137.8483  137.8437  166.9973 F       1  UNL1       -0.2042
     25 C         139.3848  139.8325  167.6563 C.ar    1  UNL1        0.0294
     26 C         140.0082  141.1568  167.3280 C.ar    1  UNL1       -0.0001
     27 C         140.9213  141.8212  168.3153 C.ar    1  UNL1       -0.0002
     28 C         140.3962  142.9018  169.2133 C.ar    1  UNL1       -0.0000
     29 C         141.3093  143.5662  170.2006 C.ar    1  UNL1       -0.0000
     30 C         142.7477  143.1500  170.2898 C.ar    1  UNL1       -0.0000
     31 C         143.2729  142.0694  169.3917 C.ar    1  UNL1       -0.0000
     32 C         142.3596  141.4050  168.4044 C.ar    1  UNL1       -0.0000
@<TRIPOS>BOND
     1    15    16    1
     2    16    17    1
     3    16    18    1
     4    16    11    1
     5    11    12   am
     6    12    13    2
     7    12     1    1
     8     1     2    1
     9     2     3   ar
    10     3     4   ar
    11     4     5   ar
    12     5     6   ar
    13     6     7   ar
    14     7     8    1
    15     8     9    2
    16     8    10   am
    17    10    19    1
    18    19    20    1
    19    20    21   ar
    20    21    22   ar
    21    22    23   ar
    22    23    24    1
    23    23    25   ar
    24    25    26   ar
    25    26    27    1
    26    27    28   ar
    27    28    29   ar
    28    29    30   ar
    29    30    31   ar
    30    31    32   ar
    31    10     1    1
    32    26    20   ar
    33    32    27   ar
    34     7     2   ar
    35    11    14    1
@<TRIPOS>MOLECULE
*****
 32 35 0 0 0
SMALL
GASTEIGER

@<TRIPOS>ATOM
      1 C         141.7831  142.5789  162.8136 C.3     1  UNL1        0.1753
      2 C         141.3497  143.5777  161.7818 C.ar    1  UNL1        0.0089
      3 C         141.6662  143.7142  160.3219 C.ar    1  UNL1       -0.0021
      4 C         141.0726  144.8399  159.5280 C.ar    1  UNL1       -0.0003
      5 C         140.1626  145.8290  160.1938 C.ar    1  UNL1        0.0001
      6 C         139.8461  145.6925  161.6536 C.ar    1  UNL1        0.0043
      7 C         140.4397  144.5668  162.4476 C.ar    1  UNL1        0.0517
      8 C         140.3106  144.1794  163.8910 C.2     1  UNL1        0.2496
      9 O         139.4945  144.8950  164.9263 O.2     1  UNL1       -0.2699
     10 N         141.1409  142.9508  164.1172 N.am    1  UNL1       -0.2620
     11 N         142.1822  140.1774  161.9060 N.am    1  UNL1       -0.3059
     12 C         142.6980  141.4130  162.5824 C.2     1  UNL1        0.2448
     13 O         144.1287  141.4824  163.0276 O.2     1  UNL1       -0.2729
     14 H         141.2432  140.1317  161.6138 H       1  UNL1        0.1494
     15 C         143.5147  139.5999  160.3597 C.3     1  UNL1        0.0196
     16 C         143.0972  139.0114  161.6748 C.3     1  UNL1        0.0569
     17 C         142.6796  138.4230  162.9899 C.3     1  UNL1        0.0196
     18 C         144.0121  137.8456  161.4436 C.3     1  UNL1        0.0196
     19 C         141.3009  142.2220  165.4184 C.3     1  UNL1        0.1212
     20 C         140.2864  141.1985  165.8345 C.ar    1  UNL1       -0.0022
     21 C         139.4125  140.5467  164.8041 C.ar    1  UNL1       -0.0003
     22 C         138.3980  139.5231  165.2202 C.ar    1  UNL1        0.0294
     23 C         138.2573  139.1514  166.6666 C.ar    1  UNL1        0.1401
     24 F         137.2428  138.1278  167.0826 F       1  UNL1       -0.2042
     25 C         139.1311  139.8031  167.6969 C.ar    1  UNL1        0.0294
     26 C         140.1457  140.8267  167.2809 C.ar    1  UNL1       -0.0001
     27 C         141.0195  141.4785  168.3112 C.ar    1  UNL1       -0.0002
     28 C         140.5646  142.7338  168.9948 C.ar    1  UNL1       -0.0000
     29 C         141.4384  143.3856  170.0251 C.ar    1  UNL1       -0.0000
     30 C         142.7672  142.7820  170.3719 C.ar    1  UNL1       -0.0000
     31 C         143.2220  141.5267  169.6884 C.ar    1  UNL1       -0.0000
     32 C         142.3482  140.8749  168.6580 C.ar    1  UNL1       -0.0000
@<TRIPOS>BOND
     1    15    16    1
     2    16    17    1
     3    16    18    1
     4    16    11    1
     5    11    12   am
     6    12    13    2
     7    12     1    1
     8     1     2    1
     9     2     3   ar
    10     3     4   ar
    11     4     5   ar
    12     5     6   ar
    13     6     7   ar
    14     7     8    1
    15     8     9    2
    16     8    10   am
    17    10    19    1
    18    19    20    1
    19    20    21   ar
    20    21    22   ar
    21    22    23   ar
    22    23    24    1
    23    23    25   ar
    24    25    26   ar
    25    26    27    1
    26    27    28   ar
    27    28    29   ar
    28    29    30   ar
    29    30    31   ar
    30    31    32   ar
    31    10     1    1
    32    26    20   ar
    33    32    27   ar
    34     7     2   ar
    35    11    14    1
@<TRIPOS>MOLECULE
*****
 32 35 0 0 0
SMALL
GASTEIGER

@<TRIPOS>ATOM
      1 C         141.4569  142.0453  163.8554 C.3     1  UNL1        0.1753
      2 C         142.8731  141.9449  163.3714 C.ar    1  UNL1        0.0089
      3 C         143.4534  141.6656  162.0166 C.ar    1  UNL1       -0.0021
      4 C         144.9414  141.6267  161.8316 C.ar    1  UNL1       -0.0003
      5 C         145.8491  141.8670  163.0013 C.ar    1  UNL1        0.0001
      6 C         145.2689  142.1463  164.3561 C.ar    1  UNL1        0.0043
      7 C         143.7809  142.1852  164.5411 C.ar    1  UNL1        0.0517
      8 C         142.9257  142.4341  165.7480 C.2     1  UNL1        0.2496
      9 O         143.4200  142.7194  167.1352 O.2     1  UNL1       -0.2699
     10 N         141.4894  142.3477  165.3242 N.am    1  UNL1       -0.2620
     11 N         139.8526  140.5154  162.5005 N.am    1  UNL1       -0.3059
     12 C         140.2246  141.8735  163.0176 C.2     1  UNL1        0.2448
     13 O         139.3643  143.0596  162.6970 O.2     1  UNL1       -0.2729
     14 H         140.4172  139.7369  162.7109 H       1  UNL1        0.1494
     15 C         137.7778  140.3354  162.9038 C.3     1  UNL1        0.0196
     16 C         138.6202  140.3436  161.6627 C.3     1  UNL1        0.0569
     17 C         139.4628  140.3519  160.4217 C.3     1  UNL1        0.0196
     18 C         137.3880  140.1719  160.8250 C.3     1  UNL1        0.0196
     19 C         140.2952  142.5314  166.2132 C.3     1  UNL1        0.1212
     20 C         140.3411  142.0623  167.6372 C.ar    1  UNL1       -0.0022
     21 C         140.4411  143.0601  168.7528 C.ar    1  UNL1       -0.0003
     22 C         140.4869  142.5910  170.1768 C.ar    1  UNL1        0.0294
     23 C         140.4328  141.1240  170.4853 C.ar    1  UNL1        0.1401
     24 F         140.4786  140.6549  171.9094 F       1  UNL1       -0.2042
     25 C         140.3327  140.1262  169.3698 C.ar    1  UNL1        0.0294
     26 C         140.2869  140.5953  167.9457 C.ar    1  UNL1       -0.0001
     27 C         140.1869  139.5975  166.8303 C.ar    1  UNL1       -0.0002
     28 C         141.4289  139.1178  166.1395 C.ar    1  UNL1       -0.0000
     29 C         141.3289  138.1199  165.0240 C.ar    1  UNL1       -0.0000
     30 C         139.9868  137.6018  164.5993 C.ar    1  UNL1       -0.0000
     31 C         138.7447  138.0816  165.2900 C.ar    1  UNL1       -0.0000
     32 C         138.8448  139.0795  166.4056 C.ar    1  UNL1       -0.0000
@<TRIPOS>BOND
     1    15    16    1
     2    16    17    1
     3    16    18    1
     4    16    11    1
     5    11    12   am
     6    12    13    2
     7    12     1    1
     8     1     2    1
     9     2     3   ar
    10     3     4   ar
    11     4     5   ar
    12     5     6   ar
    13     6     7   ar
    14     7     8    1
    15     8     9    2
    16     8    10   am
    17    10    19    1
    18    19    20    1
    19    20    21   ar
    20    21    22   ar
    21    22    23   ar
    22    23    24    1
    23    23    25   ar
    24    25    26   ar
    25    26    27    1
    26    27    28   ar
    27    28    29   ar
    28    29    30   ar
    29    30    31   ar
    30    31    32   ar
    31    10     1    1
    32    26    20   ar
    33    32    27   ar
    34     7     2   ar
    35    11    14    1
@<TRIPOS>MOLECULE
*****
 32 35 0 0 0
SMALL
GASTEIGER

@<TRIPOS>ATOM
      1 C         140.1293  141.5478  163.7802 C.3     1  UNL1        0.1753
      2 C         139.7026  140.1474  163.4534 C.ar    1  UNL1        0.0089
      3 C         139.5828  139.4128  162.1511 C.ar    1  UNL1       -0.0021
      4 C         139.1190  137.9864  162.1347 C.ar    1  UNL1       -0.0003
      5 C         138.7751  137.2947  163.4204 C.ar    1  UNL1        0.0001
      6 C         138.8949  138.0293  164.7227 C.ar    1  UNL1        0.0043
      7 C         139.3586  139.4557  164.7392 C.ar    1  UNL1        0.0517
      8 C         139.5728  140.4286  165.8606 C.2     1  UNL1        0.2496
      9 O         139.3498  140.1562  167.3187 O.2     1  UNL1       -0.2699
     10 N         140.0491  141.7216  165.2679 N.am    1  UNL1       -0.2620
     11 N         139.5486  143.5265  162.1997 N.am    1  UNL1       -0.3059
     12 C         140.5605  142.5913  162.7926 C.2     1  UNL1        0.2448
     13 O         142.0035  142.6996  162.3979 O.2     1  UNL1       -0.2729
     14 H         138.6014  143.4555  162.4588 H       1  UNL1        0.1494
     15 C         139.7811  143.5920  160.0922 C.3     1  UNL1        0.0196
     16 C         139.9798  144.5699  161.2121 C.3     1  UNL1        0.0569
     17 C         140.1785  145.5478  162.3321 C.3     1  UNL1        0.0196
     18 C         140.4110  145.6133  160.2246 C.3     1  UNL1        0.0196
     19 C         140.3860  142.9693  166.0293 C.3     1  UNL1        0.1212
     20 C         140.9944  142.8721  167.3969 C.ar    1  UNL1       -0.0022
     21 C         140.1981  143.2752  168.6025 C.ar    1  UNL1       -0.0003
     22 C         140.8066  143.1780  169.9701 C.ar    1  UNL1        0.0294
     23 C         142.2114  142.6778  170.1321 C.ar    1  UNL1        0.1401
     24 F         142.8198  142.5806  171.4998 F       1  UNL1       -0.2042
     25 C         143.0077  142.2747  168.9266 C.ar    1  UNL1        0.0294
     26 C         142.3993  142.3719  167.5589 C.ar    1  UNL1       -0.0001
     27 C         143.1956  141.9688  166.3534 C.ar    1  UNL1       -0.0002
     28 C         143.1591  140.5491  165.8708 C.ar    1  UNL1       -0.0000
     29 C         143.9554  140.1460  164.6653 C.ar    1  UNL1       -0.0000
     30 C         144.7884  141.1627  163.9423 C.ar    1  UNL1       -0.0000
     31 C         144.8249  142.5825  164.4250 C.ar    1  UNL1       -0.0000
     32 C         144.0285  142.9855  165.6306 C.ar    1  UNL1       -0.0000
@<TRIPOS>BOND
     1    15    16    1
     2    16    17    1
     3    16    18    1
     4    16    11    1
     5    11    12   am
     6    12    13    2
     7    12     1    1
     8     1     2    1
     9     2     3   ar
    10     3     4   ar
    11     4     5   ar
    12     5     6   ar
    13     6     7   ar
    14     7     8    1
    15     8     9    2
    16     8    10   am
    17    10    19    1
    18    19    20    1
    19    20    21   ar
    20    21    22   ar
    21    22    23   ar
    22    23    24    1
    23    23    25   ar
    24    25    26   ar
    25    26    27    1
    26    27    28   ar
    27    28    29   ar
    28    29    30   ar
    29    30    31   ar
    30    31    32   ar
    31    10     1    1
    32    26    20   ar
    33    32    27   ar
    34     7     2   ar
    35    11    14    1
@<TRIPOS>MOLECULE
*****
 32 35 0 0 0
SMALL
GASTEIGER

@<TRIPOS>ATOM
      1 C         141.6915  140.6373  162.0652 C.3     1  UNL1        0.1753
      2 C         141.0397  141.5014  161.0267 C.ar    1  UNL1        0.0089
      3 C         139.6731  141.4706  160.4092 C.ar    1  UNL1       -0.0021
      4 C         139.2958  142.4862  159.3718 C.ar    1  UNL1       -0.0003
      5 C         140.2852  143.5326  158.9519 C.ar    1  UNL1        0.0001
      6 C         141.6518  143.5633  159.5694 C.ar    1  UNL1        0.0043
      7 C         142.0290  142.5478  160.6068 C.ar    1  UNL1        0.0517
      8 C         143.2923  142.3303  161.3859 C.2     1  UNL1        0.2496
      9 O         144.5444  143.1498  161.2818 O.2     1  UNL1       -0.2699
     10 N         143.0837  141.1496  162.2872 N.am    1  UNL1       -0.2620
     11 N         139.8459  139.6671  163.6153 N.am    1  UNL1       -0.3059
     12 C         141.0617  139.4665  162.7598 C.2     1  UNL1        0.2448
     13 O         141.6474  138.0951  162.5989 O.2     1  UNL1       -0.2729
     14 H         139.4614  140.5673  163.7209 H       1  UNL1        0.1494
     15 C         138.5139  138.1201  163.0388 C.3     1  UNL1        0.0196
     16 C         139.2160  138.4963  164.3099 C.3     1  UNL1        0.0569
     17 C         139.9182  138.8725  165.5809 C.3     1  UNL1        0.0196
     18 C         138.5862  137.3255  165.0044 C.3     1  UNL1        0.0196
     19 C         144.0906  140.5810  163.2427 C.3     1  UNL1        0.1212
     20 C         143.6890  140.2591  164.6516 C.ar    1  UNL1       -0.0022
     21 C         143.9156  138.8813  165.1998 C.ar    1  UNL1       -0.0003
     22 C         143.5140  138.5593  166.6087 C.ar    1  UNL1        0.0294
     23 C         142.8859  139.6151  167.4695 C.ar    1  UNL1        0.1401
     24 F         142.4844  139.2931  168.8785 F       1  UNL1       -0.2042
     25 C         142.6594  140.9928  166.9213 C.ar    1  UNL1        0.0294
     26 C         143.0609  141.3148  165.5123 C.ar    1  UNL1       -0.0001
     27 C         142.8344  142.6925  164.9642 C.ar    1  UNL1       -0.0002
     28 C         141.4498  143.1332  164.5917 C.ar    1  UNL1       -0.0000
     29 C         141.2233  144.5109  164.0435 C.ar    1  UNL1       -0.0000
     30 C         142.3813  145.4480  163.8678 C.ar    1  UNL1       -0.0000
     31 C         143.7659  145.0074  164.2403 C.ar    1  UNL1       -0.0000
     32 C         143.9924  143.6296  164.7885 C.ar    1  UNL1       -0.0000
@<TRIPOS>BOND
     1    15    16    1
     2    16    17    1
     3    16    18    1
     4    16    11    1
     5    11    12   am
     6    12    13    2
     7    12     1    1
     8     1     2    1
     9     2     3   ar
    10     3     4   ar
    11     4     5   ar
    12     5     6   ar
    13     6     7   ar
    14     7     8    1
    15     8     9    2
    16     8    10   am
    17    10    19    1
    18    19    20    1
    19    20    21   ar
    20    21    22   ar
    21    22    23   ar
    22    23    24    1
    23    23    25   ar
    24    25    26   ar
    25    26    27    1
    26    27    28   ar
    27    28    29   ar
    28    29    30   ar
    29    30    31   ar
    30    31    32   ar
    31    10     1    1
    32    26    20   ar
    33    32    27   ar
    34     7     2   ar
    35    11    14    1
@<TRIPOS>MOLECULE
*****
 32 35 0 0 0
SMALL
GASTEIGER

@<TRIPOS>ATOM
      1 C         140.6430  141.5746  162.6836 C.3     1  UNL1        0.1753
      2 C         140.5238  143.0208  162.3037 C.ar    1  UNL1        0.0089
      3 C         140.7368  143.7378  161.0035 C.ar    1  UNL1       -0.0021
      4 C         140.5382  145.2225  160.9245 C.ar    1  UNL1       -0.0003
      5 C         140.1266  145.9901  162.1457 C.ar    1  UNL1        0.0001
      6 C         139.9136  145.2731  163.4458 C.ar    1  UNL1        0.0043
      7 C         140.1121  143.7885  163.5248 C.ar    1  UNL1        0.0517
      8 C         139.9770  142.8167  164.6595 C.2     1  UNL1        0.2496
      9 O         139.5830  143.1540  166.0670 O.2     1  UNL1       -0.2699
     10 N         140.3051  141.4485  164.1396 N.am    1  UNL1       -0.2620
     11 N         142.3338  139.7348  161.9718 N.am    1  UNL1       -0.3059
     12 C         141.0319  140.4517  161.7683 C.2     1  UNL1        0.2448
     13 O         140.1191  140.0457  160.6495 O.2     1  UNL1       -0.2729
     14 H         142.9329  140.0013  162.7061 H       1  UNL1        0.1494
     15 C         143.4839  139.5768  160.1964 C.3     1  UNL1        0.0196
     16 C         142.7227  138.6119  161.0564 C.3     1  UNL1        0.0569
     17 C         141.9614  137.6471  161.9165 C.3     1  UNL1        0.0196
     18 C         143.1115  137.4891  160.1411 C.3     1  UNL1        0.0196
     19 C         140.2968  140.1773  164.9359 C.3     1  UNL1        0.1212
     20 C         140.6312  140.2059  166.3978 C.ar    1  UNL1       -0.0022
     21 C         139.5414  140.0685  167.4194 C.ar    1  UNL1       -0.0003
     22 C         139.8758  140.0971  168.8813 C.ar    1  UNL1        0.0294
     23 C         141.3000  140.2630  169.3218 C.ar    1  UNL1        0.1401
     24 F         141.6344  140.2916  170.7838 F       1  UNL1       -0.2042
     25 C         142.3898  140.4004  168.3004 C.ar    1  UNL1        0.0294
     26 C         142.0554  140.3719  166.8383 C.ar    1  UNL1       -0.0001
     27 C         143.1452  140.5093  165.8169 C.ar    1  UNL1       -0.0002
     28 C         143.5576  141.8698  165.3385 C.ar    1  UNL1       -0.0000
     29 C         144.6474  142.0072  164.3170 C.ar    1  UNL1       -0.0000
     30 C         145.3249  140.7840  163.7739 C.ar    1  UNL1       -0.0000
     31 C         144.9126  139.4235  164.2523 C.ar    1  UNL1       -0.0000
     32 C         143.8227  139.2861  165.2738 C.ar    1  UNL1       -0.0000
@<TRIPOS>BOND
     1    15    16    1
     2    16    17    1
     3    16    18    1
     4    16    11    1
     5    11    12   am
     6    12    13    2
     7    12     1    1
     8     1     2    1
     9     2     3   ar
    10     3     4   ar
    11     4     5   ar
    12     5     6   ar
    13     6     7   ar
    14     7     8    1
    15     8     9    2
    16     8    10   am
    17    10    19    1
    18    19    20    1
    19    20    21   ar
    20    21    22   ar
    21    22    23   ar
    22    23    24    1
    23    23    25   ar
    24    25    26   ar
    25    26    27    1
    26    27    28   ar
    27    28    29   ar
    28    29    30   ar
    29    30    31   ar
    30    31    32   ar
    31    10     1    1
    32    26    20   ar
    33    32    27   ar
    34     7     2   ar
    35    11    14    1
@<TRIPOS>MOLECULE
*****
 32 35 0 0 0
SMALL
GASTEIGER

@<TRIPOS>ATOM
      1 C         138.9835  141.6772  164.2426 C.3     1  UNL1        0.1753
      2 C         139.5014  141.8424  165.6407 C.ar    1  UNL1        0.0089
      3 C         140.1343  143.0053  166.3457 C.ar    1  UNL1       -0.0021
      4 C         140.5608  142.8724  167.7776 C.ar    1  UNL1       -0.0003
      5 C         140.3544  141.5766  168.5045 C.ar    1  UNL1        0.0001
      6 C         139.7215  140.4137  167.7994 C.ar    1  UNL1        0.0043
      7 C         139.2951  140.5466  166.3675 C.ar    1  UNL1        0.0517
      8 C         138.6496  139.5807  165.4187 C.2     1  UNL1        0.2496
      9 O         138.2643  138.1645  165.7288 O.2     1  UNL1       -0.2699
     10 N         138.4570  140.2794  164.1054 N.am    1  UNL1       -0.2620
     11 N         140.2911  143.3026  162.6938 N.am    1  UNL1       -0.3059
     12 C         138.9908  142.7259  163.1701 C.2     1  UNL1        0.2448
     13 O         137.6979  143.1979  162.5738 O.2     1  UNL1       -0.2729
     14 H         141.1397  142.9928  163.0851 H       1  UNL1        0.1494
     15 C         140.3961  143.2805  160.5752 C.3     1  UNL1        0.0196
     16 C         140.2984  144.3512  161.6213 C.3     1  UNL1        0.0569
     17 C         140.2006  145.4218  162.6673 C.3     1  UNL1        0.0196
     18 C         140.3057  145.3997  160.5488 C.3     1  UNL1        0.0196
     19 C         137.8454  139.6847  162.8716 C.3     1  UNL1        0.1212
     20 C         138.5545  139.7961  161.5546 C.ar    1  UNL1       -0.0022
     21 C         137.8206  140.3013  160.3479 C.ar    1  UNL1       -0.0003
     22 C         138.5297  140.4126  159.0308 C.ar    1  UNL1        0.0294
     23 C         139.9729  140.0188  158.9204 C.ar    1  UNL1        0.1401
     24 F         140.6820  140.1301  157.6033 F       1  UNL1       -0.2042
     25 C         140.7068  139.5135  160.1270 C.ar    1  UNL1        0.0294
     26 C         139.9977  139.4022  161.4442 C.ar    1  UNL1       -0.0001
     27 C         140.7317  138.8969  162.6508 C.ar    1  UNL1       -0.0002
     28 C         140.5009  137.4969  163.1373 C.ar    1  UNL1       -0.0000
     29 C         141.2348  136.9917  164.3440 C.ar    1  UNL1       -0.0000
     30 C         142.1997  137.8865  165.0641 C.ar    1  UNL1       -0.0000
     31 C         142.4305  139.2865  164.5776 C.ar    1  UNL1       -0.0000
     32 C         141.6964  139.7917  163.3709 C.ar    1  UNL1       -0.0000
@<TRIPOS>BOND
     1    15    16    1
     2    16    17    1
     3    16    18    1
     4    16    11    1
     5    11    12   am
     6    12    13    2
     7    12     1    1
     8     1     2    1
     9     2     3   ar
    10     3     4   ar
    11     4     5   ar
    12     5     6   ar
    13     6     7   ar
    14     7     8    1
    15     8     9    2
    16     8    10   am
    17    10    19    1
    18    19    20    1
    19    20    21   ar
    20    21    22   ar
    21    22    23   ar
    22    23    24    1
    23    23    25   ar
    24    25    26   ar
    25    26    27    1
    26    27    28   ar
    27    28    29   ar
    28    29    30   ar
    29    30    31   ar
    30    31    32   ar
    31    10     1    1
    32    26    20   ar
    33    32    27   ar
    34     7     2   ar
    35    11    14    1
@<TRIPOS>MOLECULE
*****
 32 35 0 0 0
SMALL
GASTEIGER

@<TRIPOS>ATOM
      1 C         141.3291  139.1929  160.8350 C.3     1  UNL1        0.1753
      2 C         141.3982  138.5628  159.4755 C.ar    1  UNL1        0.0089
      3 C         142.5226  137.9094  158.7280 C.ar    1  UNL1       -0.0021
      4 C         142.2884  137.3580  157.3529 C.ar    1  UNL1       -0.0003
      5 C         140.9299  137.4598  156.7253 C.ar    1  UNL1        0.0001
      6 C         139.8054  138.1132  157.4727 C.ar    1  UNL1        0.0043
      7 C         140.0396  138.6646  158.8479 C.ar    1  UNL1        0.0517
      8 C         139.1309  139.3577  159.8195 C.2     1  UNL1        0.2496
      9 O         137.6800  139.6695  159.6012 O.2     1  UNL1       -0.2699
     10 N         139.9279  139.6842  161.0476 N.am    1  UNL1       -0.2620
     11 N         142.8114  140.6470  162.3966 N.am    1  UNL1       -0.3059
     12 C         142.4623  139.3109  161.8106 C.2     1  UNL1        0.2448
     13 O         143.2465  138.0931  162.2003 O.2     1  UNL1       -0.2729
     14 H         142.2968  141.4463  162.1409 H       1  UNL1        0.1494
     15 C         143.0074  140.4466  164.4993 C.3     1  UNL1        0.0196
     16 C         143.9447  140.7650  163.3722 C.3     1  UNL1        0.0569
     17 C         144.8818  141.0834  162.2451 C.3     1  UNL1        0.0196
     18 C         145.0778  140.8831  164.3478 C.3     1  UNL1        0.0196
     19 C         139.4139  140.3798  162.2731 C.3     1  UNL1        0.1212
     20 C         139.0116  139.5798  163.4765 C.ar    1  UNL1       -0.0022
     21 C         138.9702  138.0822  163.4019 C.ar    1  UNL1       -0.0003
     22 C         138.5679  137.2821  164.6052 C.ar    1  UNL1        0.0294
     23 C         138.2069  137.9797  165.8832 C.ar    1  UNL1        0.1401
     24 F         137.8046  137.1796  167.0866 F       1  UNL1       -0.2042
     25 C         138.2483  139.4772  165.9578 C.ar    1  UNL1        0.0294
     26 C         138.6506  140.2773  164.7544 C.ar    1  UNL1       -0.0001
     27 C         138.6920  141.7748  164.8290 C.ar    1  UNL1       -0.0002
     28 C         139.8240  142.4596  165.5360 C.ar    1  UNL1       -0.0000
     29 C         139.8653  143.9571  165.6106 C.ar    1  UNL1       -0.0000
     30 C         138.7747  144.7700  164.9783 C.ar    1  UNL1       -0.0000
     31 C         137.6427  144.0853  164.2713 C.ar    1  UNL1       -0.0000
     32 C         137.6014  142.5876  164.1967 C.ar    1  UNL1       -0.0000
@<TRIPOS>BOND
     1    15    16    1
     2    16    17    1
     3    16    18    1
     4    16    11    1
     5    11    12   am
     6    12    13    2
     7    12     1    1
     8     1     2    1
     9     2     3   ar
    10     3     4   ar
    11     4     5   ar
    12     5     6   ar
    13     6     7   ar
    14     7     8    1
    15     8     9    2
    16     8    10   am
    17    10    19    1
    18    19    20    1
    19    20    21   ar
    20    21    22   ar
    21    22    23   ar
    22    23    24    1
    23    23    25   ar
    24    25    26   ar
    25    26    27    1
    26    27    28   ar
    27    28    29   ar
    28    29    30   ar
    29    30    31   ar
    30    31    32   ar
    31    10     1    1
    32    26    20   ar
    33    32    27   ar
    34     7     2   ar
    35    11    14    1
@<TRIPOS>MOLECULE
*****
 32 35 0 0 0
SMALL
GASTEIGER

@<TRIPOS>ATOM
      1 C         142.0693  141.6941  163.0583 C.3     1  UNL1        0.1753
      2 C         142.7195  140.8870  161.9739 C.ar    1  UNL1        0.0089
      3 C         143.0875  141.2200  160.5584 C.ar    1  UNL1       -0.0021
      4 C         143.7422  140.1863  159.6908 C.ar    1  UNL1       -0.0003
      5 C         144.0289  138.8197  160.2386 C.ar    1  UNL1        0.0001
      6 C         143.6609  138.4867  161.6541 C.ar    1  UNL1        0.0043
      7 C         143.0062  139.5204  162.5218 C.ar    1  UNL1        0.0517
      8 C         142.5332  139.4830  163.9447 C.2     1  UNL1        0.2496
      9 O         142.6234  138.3082  164.8731 O.2     1  UNL1       -0.2699
     10 N         141.9542  140.8264  164.2763 N.am    1  UNL1       -0.2620
     11 N         140.4974  143.4771  162.0093 N.am    1  UNL1       -0.3059
     12 C         141.6142  143.1189  162.9445 C.2     1  UNL1        0.2448
     13 O         142.2758  144.1854  163.7659 O.2     1  UNL1       -0.2729
     14 H         140.0631  142.7771  161.4702 H       1  UNL1        0.1494
     15 C         139.0794  144.6844  163.0249 C.3     1  UNL1        0.0196
     16 C         140.0423  144.9019  161.8956 C.3     1  UNL1        0.0569
     17 C         141.0053  145.1193  160.7662 C.3     1  UNL1        0.0196
     18 C         139.5872  146.3266  161.7819 C.3     1  UNL1        0.0196
     19 C         141.3637  141.2310  165.5945 C.3     1  UNL1        0.1212
     20 C         140.2181  140.4547  166.1731 C.ar    1  UNL1       -0.0022
     21 C         139.3039  139.6812  165.2696 C.ar    1  UNL1       -0.0003
     22 C         138.1583  138.9049  165.8482 C.ar    1  UNL1        0.0294
     23 C         137.9267  138.9019  167.3302 C.ar    1  UNL1        0.1401
     24 F         136.7810  138.1256  167.9087 F       1  UNL1       -0.2042
     25 C         138.8408  139.6753  168.2336 C.ar    1  UNL1        0.0294
     26 C         139.9865  140.4517  167.6551 C.ar    1  UNL1       -0.0001
     27 C         140.9006  141.2250  168.5586 C.ar    1  UNL1       -0.0002
     28 C         140.5286  142.6116  168.9932 C.ar    1  UNL1       -0.0000
     29 C         141.4427  143.3850  169.8967 C.ar    1  UNL1       -0.0000
     30 C         142.7289  142.7718  170.3656 C.ar    1  UNL1       -0.0000
     31 C         143.1009  141.3851  169.9309 C.ar    1  UNL1       -0.0000
     32 C         142.1867  140.6118  169.0274 C.ar    1  UNL1       -0.0000
@<TRIPOS>BOND
     1    15    16    1
     2    16    17    1
     3    16    18    1
     4    16    11    1
     5    11    12   am
     6    12    13    2
     7    12     1    1
     8     1     2    1
     9     2     3   ar
    10     3     4   ar
    11     4     5   ar
    12     5     6   ar
    13     6     7   ar
    14     7     8    1
    15     8     9    2
    16     8    10   am
    17    10    19    1
    18    19    20    1
    19    20    21   ar
    20    21    22   ar
    21    22    23   ar
    22    23    24    1
    23    23    25   ar
    24    25    26   ar
    25    26    27    1
    26    27    28   ar
    27    28    29   ar
    28    29    30   ar
    29    30    31   ar
    30    31    32   ar
    31    10     1    1
    32    26    20   ar
    33    32    27   ar
    34     7     2   ar
    35    11    14    1
