@<TRIPOS>MOLECULE
*****
 31 35 0 0 0
SMALL
GASTEIGER

@<TRIPOS>ATOM
      1 C         137.8222  138.8809  167.0512 C.3     1  UNL1        0.0247
      2 C         138.8613  139.5221  166.1800 C.3     1  UNL1        0.0923
      3 C         138.6848  139.3248  164.7035 C.3     1  UNL1        0.0699
      4 C         139.5429  139.8325  163.5830 C.3     1  UNL1        0.2075
      5 O         140.7895  140.6630  163.6619 O.3     1  UNL1       -0.4726
      6 C         141.4859  141.1908  164.8811 C.ar    1  UNL1        0.1696
      7 C         142.7076  141.9806  164.5155 C.ar    1  UNL1        0.1115
      8 C         143.5511  142.5982  165.5913 C.ar    1  UNL1        0.1564
      9 F         144.7728  143.3880  165.2257 F       1  UNL1       -0.2028
     10 C         143.1728  142.4260  167.0326 C.ar    1  UNL1        0.0326
     11 C         141.9511  141.6362  167.3981 C.ar    1  UNL1        0.0214
     12 C         141.7599  141.5906  168.8899 C.ar    1  UNL1        0.0075
     13 C         140.5617  140.8223  169.3631 C.ar    1  UNL1        0.0702
     14 C         139.6515  140.1650  168.3683 C.ar    1  UNL1        0.2619
     15 O         138.4533  139.3966  168.8415 O.2     1  UNL1       -0.2669
     16 N         139.9396  140.2760  166.9005 N.ar    1  UNL1       -0.2945
     17 C         141.1076  141.0186  166.3224 C.ar    1  UNL1        0.0979
     18 N         143.0858  142.1528  163.0743 N.pl3   1  UNL1       -0.3033
     19 C         144.1809  141.4209  162.3566 C.3     1  UNL1        0.0910
     20 C         144.2073  141.9029  160.9365 C.3     1  UNL1        0.0244
     21 C         143.1285  142.9328  160.7763 C.3     1  UNL1        0.0344
     22 C         142.4355  143.0872  162.0976 C.3     1  UNL1        0.0922
     23 C         142.8005  143.6774  159.5163 C.3     1  UNL1        0.0406
     24 N         142.1280  144.8865  160.0958 N.3     1  UNL1       -0.3231
     25 C         142.7060  144.0022  158.0549 C.3     1  UNL1        0.0156
     26 C         143.3590  142.7270  158.4991 C.3     1  UNL1        0.0156
     27 H         142.1132  144.8125  161.1130 H       1  UNL1        0.1188
     28 H         141.1720  144.9447  159.7451 H       1  UNL1        0.1188
     29 C         140.2736  140.7113  170.8310 C.2     1  UNL1        0.0775
     30 O         139.6704  139.4541  171.3839 O.co2   1  UNL1       -0.5444
     31 O         140.5887  141.8575  171.7459 O.co2   1  UNL1       -0.5444
@<TRIPOS>UNITY_ATOM_ATTR
30 1
charge -1
@<TRIPOS>BOND
     1     2     1    1
     2     2     3    1
     3     3     4    1
     4     4     5    1
     5     5     6    1
     6     6     7   ar
     7     7    18    1
     8    18    19    1
     9    19    20    1
    10    20    21    1
    11    21    23    1
    12    23    24    1
    13    23    25    1
    14    25    26    1
    15    21    22    1
    16     7     8   ar
    17     8     9    1
    18     8    10   ar
    19    10    11   ar
    20    11    12   ar
    21    12    13   ar
    22    13    29    1
    23    29    30   ar
    24    29    31   ar
    25    13    14   ar
    26    14    15    2
    27    14    16   ar
    28    16    17   ar
    29    16     2    1
    30    17     6   ar
    31    22    18    1
    32    17    11   ar
    33    26    23    1
    34    24    27    1
    35    24    28    1
@<TRIPOS>MOLECULE
*****
 31 35 0 0 0
SMALL
GASTEIGER

@<TRIPOS>ATOM
      1 C         143.8088  138.2826  166.5899 C.3     1  UNL1        0.0247
      2 C         143.2355  139.3348  165.6875 C.3     1  UNL1        0.0923
      3 C         143.6740  139.2724  164.2543 C.3     1  UNL1        0.0699
      4 C         143.2848  140.1700  163.1174 C.3     1  UNL1        0.2075
      5 O         142.3610  141.3517  163.1327 O.3     1  UNL1       -0.4726
      6 C         141.5982  141.9276  164.2887 C.ar    1  UNL1        0.1696
      7 C         140.7859  143.1175  163.8711 C.ar    1  UNL1        0.1115
      8 C         139.9462  143.8438  164.8798 C.ar    1  UNL1        0.1564
      9 F         139.1339  145.0336  164.4621 F       1  UNL1       -0.2028
     10 C         139.9188  143.3802  166.3061 C.ar    1  UNL1        0.0326
     11 C         140.7312  142.1904  166.7237 C.ar    1  UNL1        0.0214
     12 C         140.5571  141.9013  168.1901 C.ar    1  UNL1        0.0075
     13 C         141.3297  140.7262  168.7117 C.ar    1  UNL1        0.0702
     14 C         142.2009  139.9306  167.7854 C.ar    1  UNL1        0.2619
     15 O         142.9736  138.7554  168.3070 O.2     1  UNL1       -0.2669
     16 N         142.2995  140.3102  166.3376 N.ar    1  UNL1       -0.2945
     17 C         141.5709  141.4641  165.7151 C.ar    1  UNL1        0.0979
     18 N         140.8133  143.5810  162.4448 N.pl3   1  UNL1       -0.3033
     19 C         141.7635  144.5846  161.8619 C.3     1  UNL1        0.0910
     20 C         141.4328  144.7462  160.4079 C.3     1  UNL1        0.0244
     21 C         140.2780  143.8424  160.0919 C.3     1  UNL1        0.0344
     22 C         139.8952  143.1223  161.3508 C.3     1  UNL1        0.0922
     23 C         139.6215  143.6862  158.7524 C.3     1  UNL1        0.0406
     24 N         138.4273  142.8662  159.1416 N.3     1  UNL1       -0.3231
     25 C         139.3796  143.8147  157.2776 C.3     1  UNL1        0.0156
     26 C         140.5876  144.4519  157.8979 C.3     1  UNL1        0.0156
     27 H         138.4490  142.6894  160.1460 H       1  UNL1        0.1188
     28 H         138.4461  141.9785  158.6396 H       1  UNL1        0.1188
     29 C         141.2311  140.3467  170.1595 C.2     1  UNL1        0.0775
     30 O         140.0860  139.5039  170.6376 O.co2   1  UNL1       -0.5444
     31 O         142.2776  140.8098  171.1292 O.co2   1  UNL1       -0.5444
@<TRIPOS>UNITY_ATOM_ATTR
30 1
charge -1
@<TRIPOS>BOND
     1     2     1    1
     2     2     3    1
     3     3     4    1
     4     4     5    1
     5     5     6    1
     6     6     7   ar
     7     7    18    1
     8    18    19    1
     9    19    20    1
    10    20    21    1
    11    21    23    1
    12    23    24    1
    13    23    25    1
    14    25    26    1
    15    21    22    1
    16     7     8   ar
    17     8     9    1
    18     8    10   ar
    19    10    11   ar
    20    11    12   ar
    21    12    13   ar
    22    13    29    1
    23    29    30   ar
    24    29    31   ar
    25    13    14   ar
    26    14    15    2
    27    14    16   ar
    28    16    17   ar
    29    16     2    1
    30    17     6   ar
    31    22    18    1
    32    17    11   ar
    33    26    23    1
    34    24    27    1
    35    24    28    1
@<TRIPOS>MOLECULE
*****
 31 35 0 0 0
SMALL
GASTEIGER

@<TRIPOS>ATOM
      1 C         143.3353  142.4830  168.1181 C.3     1  UNL1        0.0247
      2 C         142.8458  141.8766  166.8365 C.3     1  UNL1        0.0923
      3 C         143.7188  142.0974  165.6368 C.3     1  UNL1        0.0699
      4 C         143.5096  141.6257  164.2284 C.3     1  UNL1        0.2075
      5 O         142.3758  140.8167  163.6717 O.3     1  UNL1       -0.4726
      6 C         141.1711  140.2795  164.3859 C.ar    1  UNL1        0.1696
      7 C         140.2753  139.5188  163.4538 C.ar    1  UNL1        0.1115
      8 C         139.0111  138.8972  163.9691 C.ar    1  UNL1        0.1564
      9 F         138.1153  138.1365  163.0370 F       1  UNL1       -0.2028
     10 C         138.6427  139.0365  165.4165 C.ar    1  UNL1        0.0326
     11 C         139.5385  139.7972  166.3486 C.ar    1  UNL1        0.0214
     12 C         138.9812  139.8122  167.7462 C.ar    1  UNL1        0.0075
     13 C         139.8041  140.5500  168.7604 C.ar    1  UNL1        0.0702
     14 C         141.0875  141.2087  168.3492 C.ar    1  UNL1        0.2619
     15 O         141.9103  141.9465  169.3635 O.2     1  UNL1       -0.2669
     16 N         141.5480  141.1294  166.9239 N.ar    1  UNL1       -0.2945
     17 C         140.8028  140.4188  165.8334 C.ar    1  UNL1        0.0979
     18 N         140.6437  139.3796  162.0065 N.pl3   1  UNL1       -0.3033
     19 C         140.2275  140.3007  160.8982 C.3     1  UNL1        0.0910
     20 C         140.8195  139.7852  159.6201 C.3     1  UNL1        0.0244
     21 C         141.6018  138.5455  159.9383 C.3     1  UNL1        0.0344
     22 C         141.4931  138.2949  161.4132 C.3     1  UNL1        0.0922
     23 C         142.3596  137.7043  158.9545 C.3     1  UNL1        0.0406
     24 N         143.1855  136.8808  159.8977 N.3     1  UNL1       -0.3231
     25 C         142.8306  137.1490  157.6431 C.3     1  UNL1        0.0156
     26 C         141.7969  138.2356  157.6696 C.3     1  UNL1        0.0156
     27 H         142.9728  137.1487  160.8586 H       1  UNL1        0.1188
     28 H         144.1755  137.0409  159.7114 H       1  UNL1        0.1188
     29 C         139.3435  140.6292  170.1858 C.2     1  UNL1        0.0775
     30 O         138.9883  141.9570  170.7865 O.co2   1  UNL1       -0.5444
     31 O         139.2380  139.3806  171.0104 O.co2   1  UNL1       -0.5444
@<TRIPOS>UNITY_ATOM_ATTR
30 1
charge -1
@<TRIPOS>BOND
     1     2     1    1
     2     2     3    1
     3     3     4    1
     4     4     5    1
     5     5     6    1
     6     6     7   ar
     7     7    18    1
     8    18    19    1
     9    19    20    1
    10    20    21    1
    11    21    23    1
    12    23    24    1
    13    23    25    1
    14    25    26    1
    15    21    22    1
    16     7     8   ar
    17     8     9    1
    18     8    10   ar
    19    10    11   ar
    20    11    12   ar
    21    12    13   ar
    22    13    29    1
    23    29    30   ar
    24    29    31   ar
    25    13    14   ar
    26    14    15    2
    27    14    16   ar
    28    16    17   ar
    29    16     2    1
    30    17     6   ar
    31    22    18    1
    32    17    11   ar
    33    26    23    1
    34    24    27    1
    35    24    28    1
@<TRIPOS>MOLECULE
*****
 31 35 0 0 0
SMALL
GASTEIGER

@<TRIPOS>ATOM
      1 C         143.1081  142.5265  167.8696 C.3     1  UNL1        0.0247
      2 C         142.6824  141.7760  166.6426 C.3     1  UNL1        0.0923
      3 C         143.5447  141.9681  165.4302 C.3     1  UNL1        0.0699
      4 C         143.3883  141.3644  164.0662 C.3     1  UNL1        0.2075
      5 O         142.3310  140.4193  163.5772 O.3     1  UNL1       -0.4726
      6 C         141.1689  139.8447  164.3318 C.ar    1  UNL1        0.1696
      7 C         140.3481  138.9362  163.4653 C.ar    1  UNL1        0.1115
      8 C         139.1356  138.2561  164.0285 C.ar    1  UNL1        0.1564
      9 F         138.3148  137.3475  163.1620 F       1  UNL1       -0.2028
     10 C         138.7439  138.4845  165.4584 C.ar    1  UNL1        0.0326
     11 C         139.5646  139.3930  166.3249 C.ar    1  UNL1        0.0214
     12 C         138.9955  139.4782  167.7152 C.ar    1  UNL1        0.0075
     13 C         139.7447  140.3646  168.6653 C.ar    1  UNL1        0.0702
     14 C         140.9724  141.0919  168.2027 C.ar    1  UNL1        0.2619
     15 O         141.7216  141.9784  169.1529 O.2     1  UNL1       -0.2669
     16 N         141.4507  140.9326  166.7900 N.ar    1  UNL1       -0.2945
     17 C         140.7772  140.0732  165.7617 C.ar    1  UNL1        0.0979
     18 N         140.7399  138.7078  162.0355 N.pl3   1  UNL1       -0.3033
     19 C         141.8506  137.8206  161.5565 C.3     1  UNL1        0.0910
     20 C         141.8868  137.8909  160.0587 C.3     1  UNL1        0.0244
     21 C         140.7986  138.8215  159.6118 C.3     1  UNL1        0.0344
     22 C         140.0898  139.3263  160.8335 C.3     1  UNL1        0.0922
     23 C         140.4759  139.1837  158.1924 C.3     1  UNL1        0.0406
     24 N         138.9991  139.4177  158.3126 N.3     1  UNL1       -0.3231
     25 C         140.6659  139.4646  156.7312 C.3     1  UNL1        0.0156
     26 C         141.8405  139.0754  157.5793 C.3     1  UNL1        0.0156
     27 H         138.7075  139.2614  159.2775 H       1  UNL1        0.1188
     28 H         138.5016  138.7730  157.6985 H       1  UNL1        0.1188
     29 C         139.2663  140.5239  170.0781 C.2     1  UNL1        0.0775
     30 O         139.2415  139.3404  170.9994 O.co2   1  UNL1       -0.5444
     31 O         138.8128  141.8666  170.5695 O.co2   1  UNL1       -0.5444
@<TRIPOS>UNITY_ATOM_ATTR
30 1
charge -1
@<TRIPOS>BOND
     1     2     1    1
     2     2     3    1
     3     3     4    1
     4     4     5    1
     5     5     6    1
     6     6     7   ar
     7     7    18    1
     8    18    19    1
     9    19    20    1
    10    20    21    1
    11    21    23    1
    12    23    24    1
    13    23    25    1
    14    25    26    1
    15    21    22    1
    16     7     8   ar
    17     8     9    1
    18     8    10   ar
    19    10    11   ar
    20    11    12   ar
    21    12    13   ar
    22    13    29    1
    23    29    30   ar
    24    29    31   ar
    25    13    14   ar
    26    14    15    2
    27    14    16   ar
    28    16    17   ar
    29    16     2    1
    30    17     6   ar
    31    22    18    1
    32    17    11   ar
    33    26    23    1
    34    24    27    1
    35    24    28    1
@<TRIPOS>MOLECULE
*****
 31 35 0 0 0
SMALL
GASTEIGER

@<TRIPOS>ATOM
      1 C         144.0704  141.8816  159.5193 C.3     1  UNL1        0.0247
      2 C         143.1700  141.6842  160.7026 C.3     1  UNL1        0.0923
      3 C         143.5188  140.5350  161.6014 C.3     1  UNL1        0.0699
      4 C         142.8236  140.0800  162.8501 C.3     1  UNL1        0.2075
      5 O         141.6079  140.6616  163.5087 O.3     1  UNL1       -0.4726
      6 C         140.7871  141.8421  163.0811 C.ar    1  UNL1        0.1696
      7 C         139.6491  142.0896  164.0264 C.ar    1  UNL1        0.1115
      8 C         138.7032  143.2275  163.7799 C.ar    1  UNL1        0.1564
      9 F         137.5652  143.4750  164.7252 F       1  UNL1       -0.2028
     10 C         138.8955  144.1177  162.5880 C.ar    1  UNL1        0.0326
     11 C         140.0335  143.8702  161.6427 C.ar    1  UNL1        0.0214
     12 C         140.0387  144.8759  160.5235 C.ar    1  UNL1        0.0075
     13 C         141.1410  144.7166  159.5188 C.ar    1  UNL1        0.0702
     14 C         142.1416  143.6097  159.6724 C.ar    1  UNL1        0.2619
     15 O         143.2439  143.4504  158.6677 O.2     1  UNL1       -0.2669
     16 N         142.0398  142.6622  160.8308 N.ar    1  UNL1       -0.2945
     17 C         140.9794  142.7323  161.8892 C.ar    1  UNL1        0.0979
     18 N         139.4569  141.1993  165.2181 N.pl3   1  UNL1       -0.3033
     19 C         138.5655  139.9947  165.2842 C.3     1  UNL1        0.0910
     20 C         138.6800  139.4082  166.6600 C.3     1  UNL1        0.0244
     21 C         139.6421  140.2503  167.4443 C.3     1  UNL1        0.0344
     22 C         140.1222  141.3572  166.5532 C.3     1  UNL1        0.0922
     23 C         140.0521  140.0250  168.8695 C.3     1  UNL1        0.0406
     24 N         138.7037  139.8577  169.5050 N.3     1  UNL1       -0.3231
     25 C         140.9303  139.8578  170.0740 C.3     1  UNL1        0.0156
     26 C         141.5428  140.1141  168.7289 C.3     1  UNL1        0.0156
     27 H         137.9788  139.9475  168.7931 H       1  UNL1        0.1188
     28 H         138.5719  140.5761  170.2170 H       1  UNL1        0.1188
     29 C         141.2428  145.6642  158.3605 C.2     1  UNL1        0.0775
     30 O         140.0166  146.0213  157.5737 O.co2   1  UNL1       -0.5444
     31 O         142.5707  146.2547  157.9890 O.co2   1  UNL1       -0.5444
@<TRIPOS>UNITY_ATOM_ATTR
30 1
charge -1
@<TRIPOS>BOND
     1     2     1    1
     2     2     3    1
     3     3     4    1
     4     4     5    1
     5     5     6    1
     6     6     7   ar
     7     7    18    1
     8    18    19    1
     9    19    20    1
    10    20    21    1
    11    21    23    1
    12    23    24    1
    13    23    25    1
    14    25    26    1
    15    21    22    1
    16     7     8   ar
    17     8     9    1
    18     8    10   ar
    19    10    11   ar
    20    11    12   ar
    21    12    13   ar
    22    13    29    1
    23    29    30   ar
    24    29    31   ar
    25    13    14   ar
    26    14    15    2
    27    14    16   ar
    28    16    17   ar
    29    16     2    1
    30    17     6   ar
    31    22    18    1
    32    17    11   ar
    33    26    23    1
    34    24    27    1
    35    24    28    1
@<TRIPOS>MOLECULE
*****
 31 35 0 0 0
SMALL
GASTEIGER

@<TRIPOS>ATOM
      1 C         139.1873  140.1454  169.5568 C.3     1  UNL1        0.0247
      2 C         139.4631  140.0807  168.0838 C.3     1  UNL1        0.0923
      3 C         138.4612  139.3200  167.2668 C.3     1  UNL1        0.0699
      4 C         138.4531  139.0760  165.7869 C.3     1  UNL1        0.2075
      5 O         139.4449  139.5323  164.7583 O.3     1  UNL1       -0.4726
      6 C         140.6898  140.3455  164.9557 C.ar    1  UNL1        0.1696
      7 C         141.4014  140.5823  163.6566 C.ar    1  UNL1        0.1115
      8 C         142.6736  141.3768  163.6322 C.ar    1  UNL1        0.1564
      9 F         143.3851  141.6136  162.3332 F       1  UNL1       -0.2028
     10 C         143.2341  141.9344  164.9070 C.ar    1  UNL1        0.0326
     11 C         142.5225  141.6976  166.2060 C.ar    1  UNL1        0.0214
     12 C         143.2546  142.3420  167.3519 C.ar    1  UNL1        0.0075
     13 C         142.6241  142.1642  168.7012 C.ar    1  UNL1        0.0702
     14 C         141.3490  141.3858  168.8366 C.ar    1  UNL1        0.2619
     15 O         140.7185  141.2080  170.1860 O.2     1  UNL1       -0.2669
     16 N         140.7045  140.7853  167.6225 N.ar    1  UNL1       -0.2945
     17 C         141.2503  140.9031  166.2304 C.ar    1  UNL1        0.0979
     18 N         140.8409  140.0247  162.3820 N.pl3   1  UNL1       -0.3033
     19 C         141.1170  138.6620  161.8190 C.3     1  UNL1        0.0910
     20 C         140.3526  138.5270  160.5356 C.3     1  UNL1        0.0244
     21 C         139.6039  139.8063  160.3051 C.3     1  UNL1        0.0344
     22 C         139.9057  140.7318  161.4463 C.3     1  UNL1        0.0922
     23 C         138.7105  140.1070  159.1385 C.3     1  UNL1        0.0406
     24 N         137.3730  139.8192  159.7537 N.3     1  UNL1       -0.3231
     25 C         138.2813  140.5077  157.7581 C.3     1  UNL1        0.0156
     26 C         139.7375  140.4993  158.1181 C.3     1  UNL1        0.0156
     27 H         137.5004  139.5256  160.7222 H       1  UNL1        0.1188
     28 H         136.9113  139.0750  159.2308 H       1  UNL1        0.1188
     29 C         143.2687  142.7648  169.9153 C.2     1  UNL1        0.0775
     30 O         142.4191  143.3663  170.9954 O.co2   1  UNL1       -0.5444
     31 O         144.7627  142.7638  170.0492 O.co2   1  UNL1       -0.5444
@<TRIPOS>UNITY_ATOM_ATTR
30 1
charge -1
@<TRIPOS>BOND
     1     2     1    1
     2     2     3    1
     3     3     4    1
     4     4     5    1
     5     5     6    1
     6     6     7   ar
     7     7    18    1
     8    18    19    1
     9    19    20    1
    10    20    21    1
    11    21    23    1
    12    23    24    1
    13    23    25    1
    14    25    26    1
    15    21    22    1
    16     7     8   ar
    17     8     9    1
    18     8    10   ar
    19    10    11   ar
    20    11    12   ar
    21    12    13   ar
    22    13    29    1
    23    29    30   ar
    24    29    31   ar
    25    13    14   ar
    26    14    15    2
    27    14    16   ar
    28    16    17   ar
    29    16     2    1
    30    17     6   ar
    31    22    18    1
    32    17    11   ar
    33    26    23    1
    34    24    27    1
    35    24    28    1
@<TRIPOS>MOLECULE
*****
 31 35 0 0 0
SMALL
GASTEIGER

@<TRIPOS>ATOM
      1 C         138.2180  139.5214  165.9634 C.3     1  UNL1        0.0247
      2 C         139.0071  140.2778  164.9362 C.3     1  UNL1        0.0923
      3 C         138.4569  140.2479  163.5410 C.3     1  UNL1        0.0699
      4 C         139.0058  140.8968  162.3052 C.3     1  UNL1        0.2075
      5 O         140.2405  141.7360  162.1590 O.3     1  UNL1       -0.4726
      6 C         141.2312  142.1335  163.2128 C.ar    1  UNL1        0.1696
      7 C         142.3277  142.9828  162.6415 C.ar    1  UNL1        0.1115
      8 C         143.4251  143.4886  163.5304 C.ar    1  UNL1        0.1564
      9 F         144.5216  144.3379  162.9592 F       1  UNL1       -0.2028
     10 C         143.4258  143.1450  164.9906 C.ar    1  UNL1        0.0326
     11 C         142.3293  142.2958  165.5618 C.ar    1  UNL1        0.0214
     12 C         142.5252  142.0758  167.0374 C.ar    1  UNL1        0.0075
     13 C         141.4791  141.2359  167.7084 C.ar    1  UNL1        0.0702
     14 C         140.3376  140.6800  166.9096 C.ar    1  UNL1        0.2619
     15 O         139.2915  139.8401  167.5807 O.2     1  UNL1       -0.2669
     16 N         140.2422  140.9642  165.4399 N.ar    1  UNL1       -0.2945
     17 C         141.2319  141.7900  164.6729 C.ar    1  UNL1        0.0979
     18 N         142.3269  143.3263  161.1814 N.pl3   1  UNL1       -0.3033
     19 C         143.0525  142.5818  160.1001 C.3     1  UNL1        0.0910
     20 C         142.7745  143.2700  158.7967 C.3     1  UNL1        0.0244
     21 C         141.8770  144.4399  159.0723 C.3     1  UNL1        0.0344
     22 C         141.6005  144.4747  160.5462 C.3     1  UNL1        0.0922
     23 C         141.3489  145.4054  158.0531 C.3     1  UNL1        0.0406
     24 N         142.5705  146.2482  157.8353 N.3     1  UNL1       -0.3231
     25 C         140.3967  146.0783  157.1095 C.3     1  UNL1        0.0156
     26 C         139.9440  144.8980  157.9169 C.3     1  UNL1        0.0156
     27 H         143.3293  145.9060  158.4248 H       1  UNL1        0.1188
     28 H         142.3627  147.2171  158.0770 H       1  UNL1        0.1188
     29 C         141.5746  140.9518  169.1782 C.2     1  UNL1        0.0775
     30 O         140.6338  141.6230  170.1344 O.co2   1  UNL1       -0.5444
     31 O         142.6108  139.9964  169.6917 O.co2   1  UNL1       -0.5444
@<TRIPOS>UNITY_ATOM_ATTR
30 1
charge -1
@<TRIPOS>BOND
     1     2     1    1
     2     2     3    1
     3     3     4    1
     4     4     5    1
     5     5     6    1
     6     6     7   ar
     7     7    18    1
     8    18    19    1
     9    19    20    1
    10    20    21    1
    11    21    23    1
    12    23    24    1
    13    23    25    1
    14    25    26    1
    15    21    22    1
    16     7     8   ar
    17     8     9    1
    18     8    10   ar
    19    10    11   ar
    20    11    12   ar
    21    12    13   ar
    22    13    29    1
    23    29    30   ar
    24    29    31   ar
    25    13    14   ar
    26    14    15    2
    27    14    16   ar
    28    16    17   ar
    29    16     2    1
    30    17     6   ar
    31    22    18    1
    32    17    11   ar
    33    26    23    1
    34    24    27    1
    35    24    28    1
@<TRIPOS>MOLECULE
*****
 31 35 0 0 0
SMALL
GASTEIGER

@<TRIPOS>ATOM
      1 C         138.6312  139.9503  158.2075 C.3     1  UNL1        0.0247
      2 C         138.8239  139.8005  159.6875 C.3     1  UNL1        0.0923
      3 C         137.7170  140.3375  160.5457 C.3     1  UNL1        0.0699
      4 C         137.6109  140.3401  162.0419 C.3     1  UNL1        0.2075
      5 O         138.5855  139.8063  163.0496 O.3     1  UNL1       -0.4726
      6 C         139.9069  139.1381  162.8098 C.ar    1  UNL1        0.1696
      7 C         140.5690  138.7545  164.0999 C.ar    1  UNL1        0.1115
      8 C         141.9044  138.0715  164.0834 C.ar    1  UNL1        0.1564
      9 F         142.5666  137.6879  165.3735 F       1  UNL1       -0.2028
     10 C         142.5776  137.7720  162.7768 C.ar    1  UNL1        0.0326
     11 C         141.9154  138.1556  161.4867 C.ar    1  UNL1        0.0214
     12 C         142.7603  137.7639  160.3049 C.ar    1  UNL1        0.0075
     13 C         142.1867  138.1040  158.9613 C.ar    1  UNL1        0.0702
     14 C         140.8555  138.7888  158.8657 C.ar    1  UNL1        0.2619
     15 O         140.2819  139.1289  157.5221 O.2     1  UNL1       -0.2669
     16 N         140.0981  139.1334  160.1137 N.ar    1  UNL1       -0.2945
     17 C         140.5800  138.8387  161.5032 C.ar    1  UNL1        0.0979
     18 N         139.8959  139.0540  165.4064 N.pl3   1  UNL1       -0.3033
     19 C         138.5681  138.5209  165.8568 C.3     1  UNL1        0.0910
     20 C         138.2839  139.0765  167.2207 C.3     1  UNL1        0.0244
     21 C         139.4361  139.9531  167.6135 C.3     1  UNL1        0.0344
     22 C         140.4323  139.9391  166.4922 C.3     1  UNL1        0.0922
     23 C         139.5686  140.7105  168.9014 C.3     1  UNL1        0.0406
     24 N         138.7575  139.8305  169.8057 N.3     1  UNL1       -0.3231
     25 C         139.9829  141.7735  169.8753 C.3     1  UNL1        0.0156
     26 C         140.4257  141.8534  168.4444 C.3     1  UNL1        0.0156
     27 H         138.3957  139.0385  169.2745 H       1  UNL1        0.1188
     28 H         137.9793  140.3650  170.1917 H       1  UNL1        0.1188
     29 C         142.9442  137.7594  157.7133 C.2     1  UNL1        0.0775
     30 O         142.8939  136.3633  157.1669 O.co2   1  UNL1       -0.5444
     31 O         143.7519  138.8108  157.0118 O.co2   1  UNL1       -0.5444
@<TRIPOS>UNITY_ATOM_ATTR
30 1
charge -1
@<TRIPOS>BOND
     1     2     1    1
     2     2     3    1
     3     3     4    1
     4     4     5    1
     5     5     6    1
     6     6     7   ar
     7     7    18    1
     8    18    19    1
     9    19    20    1
    10    20    21    1
    11    21    23    1
    12    23    24    1
    13    23    25    1
    14    25    26    1
    15    21    22    1
    16     7     8   ar
    17     8     9    1
    18     8    10   ar
    19    10    11   ar
    20    11    12   ar
    21    12    13   ar
    22    13    29    1
    23    29    30   ar
    24    29    31   ar
    25    13    14   ar
    26    14    15    2
    27    14    16   ar
    28    16    17   ar
    29    16     2    1
    30    17     6   ar
    31    22    18    1
    32    17    11   ar
    33    26    23    1
    34    24    27    1
    35    24    28    1
@<TRIPOS>MOLECULE
*****
 31 35 0 0 0
SMALL
GASTEIGER

@<TRIPOS>ATOM
      1 C         137.8624  138.9065  167.9913 C.3     1  UNL1        0.0247
      2 C         138.6697  139.3553  166.8094 C.3     1  UNL1        0.0923
      3 C         138.2730  138.7655  165.4884 C.3     1  UNL1        0.0699
      4 C         138.8755  139.0092  164.1367 C.3     1  UNL1        0.2075
      5 O         140.0236  139.9029  163.7717 O.3     1  UNL1       -0.4726
      6 C         140.8528  140.7736  164.6686 C.ar    1  UNL1        0.1696
      7 C         141.9072  141.5094  163.8961 C.ar    1  UNL1        0.1115
      8 C         142.8474  142.4373  164.6068 C.ar    1  UNL1        0.1564
      9 F         143.9018  143.1731  163.8343 F       1  UNL1       -0.2028
     10 C         142.7332  142.6293  166.0901 C.ar    1  UNL1        0.0326
     11 C         141.6788  141.8935  166.8627 C.ar    1  UNL1        0.0214
     12 C         141.7430  142.2318  168.3274 C.ar    1  UNL1        0.0075
     13 C         140.7272  141.5464  169.1925 C.ar    1  UNL1        0.0702
     14 C         139.7392  140.5977  168.5811 C.ar    1  UNL1        0.2619
     15 O         138.7234  139.9123  169.4461 O.2     1  UNL1       -0.2669
     16 N         139.7671  140.3345  167.1046 N.ar    1  UNL1       -0.2945
     17 C         140.7385  140.9656  166.1519 C.ar    1  UNL1        0.0979
     18 N         142.0214  141.3174  162.4129 N.pl3   1  UNL1       -0.3033
     19 C         141.6877  142.3361  161.3636 C.3     1  UNL1        0.0910
     20 C         141.9494  141.7213  160.0208 C.3     1  UNL1        0.0244
     21 C         142.4449  140.3225  160.2399 C.3     1  UNL1        0.0344
     22 C         142.4893  140.0730  161.7183 C.3     1  UNL1        0.0922
     23 C         142.8284  139.3451  159.1688 C.3     1  UNL1        0.0406
     24 N         144.1796  139.8813  158.7987 N.3     1  UNL1       -0.3231
     25 C         142.7429  138.1814  158.2261 C.3     1  UNL1        0.0156
     26 C         141.6106  138.4694  159.1669 C.3     1  UNL1        0.0156
     27 H         144.3888  140.6997  159.3703 H       1  UNL1        0.1188
     28 H         144.1825  140.1449  157.8133 H       1  UNL1        0.1188
     29 C         140.6994  141.8097  170.6689 C.2     1  UNL1        0.0775
     30 O         141.5539  140.9931  171.5926 O.co2   1  UNL1       -0.5444
     31 O         139.8172  142.8896  171.2217 O.co2   1  UNL1       -0.5444
@<TRIPOS>UNITY_ATOM_ATTR
30 1
charge -1
@<TRIPOS>BOND
     1     2     1    1
     2     2     3    1
     3     3     4    1
     4     4     5    1
     5     5     6    1
     6     6     7   ar
     7     7    18    1
     8    18    19    1
     9    19    20    1
    10    20    21    1
    11    21    23    1
    12    23    24    1
    13    23    25    1
    14    25    26    1
    15    21    22    1
    16     7     8   ar
    17     8     9    1
    18     8    10   ar
    19    10    11   ar
    20    11    12   ar
    21    12    13   ar
    22    13    29    1
    23    29    30   ar
    24    29    31   ar
    25    13    14   ar
    26    14    15    2
    27    14    16   ar
    28    16    17   ar
    29    16     2    1
    30    17     6   ar
    31    22    18    1
    32    17    11   ar
    33    26    23    1
    34    24    27    1
    35    24    28    1
