@<TRIPOS>MOLECULE
*****
 26 29 0 0 0
SMALL
GASTEIGER

@<TRIPOS>ATOM
      1 C         138.6528  140.5181  164.3411 C.ar    1  UNL1        0.0536
      2 C         139.6736  141.4582  164.9104 C.ar    1  UNL1        0.0042
      3 C         140.1580  141.2764  166.3183 C.ar    1  UNL1       -0.0028
      4 C         139.6216  140.1544  167.1569 C.ar    1  UNL1       -0.0061
      5 C         138.6008  139.2142  166.5877 C.ar    1  UNL1       -0.0028
      6 C         138.1165  139.3961  165.1798 C.ar    1  UNL1        0.0042
      7 O         136.9437  141.5224  162.6617 O.2     1  UNL1       -0.2699
      8 C         138.1684  140.6999  162.9332 C.2     1  UNL1        0.2491
      9 N         138.9086  140.0592  161.7967 N.am    1  UNL1       -0.2732
     10 C         140.1333  139.2367  162.0681 C.3     1  UNL1        0.1110
     11 C         140.8735  138.5960  160.9316 C.3     1  UNL1        0.0939
     12 N         140.3890  138.7779  159.5237 N.3     1  UNL1       -0.2711
     13 C         139.1644  139.6004  159.2523 C.3     1  UNL1        0.0939
     14 C         138.4242  140.2410  160.3887 C.3     1  UNL1        0.1110
     15 C         141.1292  138.1372  158.3872 C.3     1  UNL1        0.0576
     16 C         142.5550  137.7433  158.1379 C.3     1  UNL1        0.0160
     17 C         142.1761  137.2311  156.7800 C.3     1  UNL1        0.0028
     18 C         140.7503  137.6249  157.0293 C.3     1  UNL1        0.0160
     19 C         140.1061  139.9725  168.5649 C.3     1  UNL1        0.0991
     20 N         141.0220  140.9887  169.1800 N.3     1  UNL1       -0.2688
     21 C         140.4686  142.2866  169.6891 C.3     1  UNL1        0.0752
     22 C         141.3846  143.3028  170.3042 C.3     1  UNL1        0.0526
     23 C         142.8541  143.0210  170.4102 C.3     1  UNL1        0.1638
     24 F         143.7701  144.0371  171.0253 F       1  UNL1       -0.2372
     25 C         143.4076  141.7231  169.9012 C.3     1  UNL1        0.0526
     26 C         142.4916  140.7070  169.2861 C.3     1  UNL1        0.0752
@<TRIPOS>BOND
     1     7     8    2
     2     8     1    1
     3     1     2   ar
     4     2     3   ar
     5     3     4   ar
     6     4    19    1
     7    19    20    1
     8    20    21    1
     9    21    22    1
    10    22    23    1
    11    23    24    1
    12    23    25    1
    13    25    26    1
    14     4     5   ar
    15     5     6   ar
    16     8     9   am
    17     9    10    1
    18    10    11    1
    19    11    12    1
    20    12    15    1
    21    15    16    1
    22    16    17    1
    23    17    18    1
    24    12    13    1
    25    13    14    1
    26     6     1   ar
    27    14     9    1
    28    26    20    1
    29    18    15    1
@<TRIPOS>MOLECULE
*****
 26 29 0 0 0
SMALL
GASTEIGER

@<TRIPOS>ATOM
      1 C         138.8016  140.9581  163.8652 C.ar    1  UNL1        0.0536
      2 C         138.0771  139.9336  164.6871 C.ar    1  UNL1        0.0042
      3 C         138.5510  139.6128  166.0736 C.ar    1  UNL1       -0.0028
      4 C         139.7494  140.3165  166.6382 C.ar    1  UNL1       -0.0061
      5 C         140.4738  141.3410  165.8163 C.ar    1  UNL1       -0.0028
      6 C         139.9999  141.6618  164.4298 C.ar    1  UNL1        0.0042
      7 O         137.3539  142.3986  162.2592 O.2     1  UNL1       -0.2699
      8 C         138.3277  141.2790  162.4786 C.2     1  UNL1        0.2491
      9 N         138.8275  140.4802  161.3116 N.am    1  UNL1       -0.2732
     10 C         139.8013  139.3606  161.5310 C.3     1  UNL1        0.1110
     11 C         140.3012  138.5618  160.3638 C.3     1  UNL1        0.0939
     12 N         139.8273  138.8827  158.9774 N.3     1  UNL1       -0.2711
     13 C         138.8535  140.0023  158.7579 C.3     1  UNL1        0.0939
     14 C         138.3536  140.8011  159.9250 C.3     1  UNL1        0.1110
     15 C         140.3271  138.0839  157.8103 C.3     1  UNL1        0.0576
     16 C         141.6591  137.5337  157.3940 C.3     1  UNL1        0.0160
     17 C         141.0341  136.9542  156.1598 C.3     1  UNL1        0.0028
     18 C         139.7021  137.5043  156.5760 C.3     1  UNL1        0.0160
     19 C         140.2233  139.9956  168.0248 C.3     1  UNL1        0.0991
     20 N         141.0600  140.9858  168.7793 N.3     1  UNL1       -0.2688
     21 C         140.4320  142.2300  169.3339 C.3     1  UNL1        0.0752
     22 C         141.2688  143.2202  170.0885 C.3     1  UNL1        0.0526
     23 C         142.7335  142.9662  170.2884 C.3     1  UNL1        0.1638
     24 F         143.5702  143.9564  171.0430 F       1  UNL1       -0.2372
     25 C         143.3615  141.7220  169.7338 C.3     1  UNL1        0.0526
     26 C         142.5248  140.7318  168.9793 C.3     1  UNL1        0.0752
@<TRIPOS>BOND
     1     7     8    2
     2     8     1    1
     3     1     2   ar
     4     2     3   ar
     5     3     4   ar
     6     4    19    1
     7    19    20    1
     8    20    21    1
     9    21    22    1
    10    22    23    1
    11    23    24    1
    12    23    25    1
    13    25    26    1
    14     4     5   ar
    15     5     6   ar
    16     8     9   am
    17     9    10    1
    18    10    11    1
    19    11    12    1
    20    12    15    1
    21    15    16    1
    22    16    17    1
    23    17    18    1
    24    12    13    1
    25    13    14    1
    26     6     1   ar
    27    14     9    1
    28    26    20    1
    29    18    15    1
@<TRIPOS>MOLECULE
*****
 26 29 0 0 0
SMALL
GASTEIGER

@<TRIPOS>ATOM
      1 C         138.5988  138.8293  164.7923 C.ar    1  UNL1        0.0536
      2 C         138.0352  139.8407  163.8388 C.ar    1  UNL1        0.0042
      3 C         138.2548  139.6842  162.3632 C.ar    1  UNL1       -0.0028
      4 C         139.0382  138.5163  161.8413 C.ar    1  UNL1       -0.0061
      5 C         139.6018  137.5049  162.7948 C.ar    1  UNL1       -0.0028
      6 C         139.3822  137.6614  164.2704 C.ar    1  UNL1        0.0042
      7 O         137.2029  138.3266  166.9251 O.2     1  UNL1       -0.2699
      8 C         138.3792  138.9857  166.2679 C.2     1  UNL1        0.2491
      9 N         139.3358  139.8013  167.0863 N.am    1  UNL1       -0.2732
     10 C         140.5121  140.4604  166.4291 C.3     1  UNL1        0.1110
     11 C         141.4687  141.2760  167.2475 C.3     1  UNL1        0.0939
     12 N         141.2490  141.4325  168.7230 N.3     1  UNL1       -0.2711
     13 C         140.0727  140.7733  169.3802 C.3     1  UNL1        0.0939
     14 C         139.1161  139.9578  168.5619 C.3     1  UNL1        0.1110
     15 C         142.2056  142.2480  169.5414 C.3     1  UNL1        0.0576
     16 C         143.6686  142.1621  169.8610 C.3     1  UNL1        0.0160
     17 C         143.5585  143.4014  170.6987 C.3     1  UNL1        0.0028
     18 C         142.0954  143.4874  170.3791 C.3     1  UNL1        0.0160
     19 C         139.2578  138.3599  160.3657 C.3     1  UNL1        0.0991
     20 N         140.5349  138.8400  159.7424 N.3     1  UNL1       -0.2688
     21 C         140.8274  138.5366  158.3029 C.3     1  UNL1        0.0752
     22 C         142.1046  139.0168  157.6797 C.3     1  UNL1        0.0526
     23 C         143.0891  139.8004  158.4960 C.3     1  UNL1        0.1638
     24 F         144.3662  140.2806  157.8728 F       1  UNL1       -0.2372
     25 C         142.7966  140.1039  159.9356 C.3     1  UNL1        0.0526
     26 C         141.5196  139.6237  160.5588 C.3     1  UNL1        0.0752
@<TRIPOS>BOND
     1     7     8    2
     2     8     1    1
     3     1     2   ar
     4     2     3   ar
     5     3     4   ar
     6     4    19    1
     7    19    20    1
     8    20    21    1
     9    21    22    1
    10    22    23    1
    11    23    24    1
    12    23    25    1
    13    25    26    1
    14     4     5   ar
    15     5     6   ar
    16     8     9   am
    17     9    10    1
    18    10    11    1
    19    11    12    1
    20    12    15    1
    21    15    16    1
    22    16    17    1
    23    17    18    1
    24    12    13    1
    25    13    14    1
    26     6     1   ar
    27    14     9    1
    28    26    20    1
    29    18    15    1
@<TRIPOS>MOLECULE
*****
 26 29 0 0 0
SMALL
GASTEIGER

@<TRIPOS>ATOM
      1 C         140.1702  138.5500  157.8324 C.ar    1  UNL1        0.0536
      2 C         141.6400  138.5290  158.1308 C.ar    1  UNL1        0.0042
      3 C         142.5423  137.5872  157.3899 C.ar    1  UNL1       -0.0028
      4 C         141.9747  136.6664  156.3506 C.ar    1  UNL1       -0.0061
      5 C         140.5048  136.6874  156.0523 C.ar    1  UNL1       -0.0028
      6 C         139.6026  137.6292  156.7931 C.ar    1  UNL1        0.0042
      7 O         138.5554  140.5853  157.8339 O.2     1  UNL1       -0.2699
      8 C         139.2679  139.4918  158.5733 C.2     1  UNL1        0.2491
      9 N         139.0780  139.3401  160.0534 N.am    1  UNL1       -0.2732
     10 C         139.7905  138.2466  160.7928 C.3     1  UNL1        0.1110
     11 C         139.6006  138.0949  162.2730 C.3     1  UNL1        0.0939
     12 N         138.6983  139.0367  163.0138 N.3     1  UNL1       -0.2711
     13 C         137.9858  140.1302  162.2745 C.3     1  UNL1        0.0939
     14 C         138.1757  140.2819  160.7943 C.3     1  UNL1        0.1110
     15 C         138.5085  138.8849  164.4940 C.3     1  UNL1        0.0576
     16 C         138.1694  139.8152  165.6208 C.3     1  UNL1        0.0160
     17 C         138.2400  138.6704  166.5873 C.3     1  UNL1        0.0028
     18 C         138.5790  137.7400  165.4605 C.3     1  UNL1        0.0160
     19 C         142.8770  135.7246  155.6097 C.3     1  UNL1        0.0991
     20 N         142.9346  134.2776  156.0008 N.3     1  UNL1       -0.2688
     21 C         143.9374  133.8143  157.0156 C.3     1  UNL1        0.0752
     22 C         143.9949  132.3673  157.4066 C.3     1  UNL1        0.0526
     23 C         143.0498  131.3836  156.7828 C.3     1  UNL1        0.1638
     24 F         143.1074  129.9367  157.1739 F       1  UNL1       -0.2372
     25 C         142.0471  131.8470  155.7680 C.3     1  UNL1        0.0526
     26 C         141.9895  133.2939  155.3770 C.3     1  UNL1        0.0752
@<TRIPOS>BOND
     1     7     8    2
     2     8     1    1
     3     1     2   ar
     4     2     3   ar
     5     3     4   ar
     6     4    19    1
     7    19    20    1
     8    20    21    1
     9    21    22    1
    10    22    23    1
    11    23    24    1
    12    23    25    1
    13    25    26    1
    14     4     5   ar
    15     5     6   ar
    16     8     9   am
    17     9    10    1
    18    10    11    1
    19    11    12    1
    20    12    15    1
    21    15    16    1
    22    16    17    1
    23    17    18    1
    24    12    13    1
    25    13    14    1
    26     6     1   ar
    27    14     9    1
    28    26    20    1
    29    18    15    1
@<TRIPOS>MOLECULE
*****
 26 29 0 0 0
SMALL
GASTEIGER

@<TRIPOS>ATOM
      1 C         140.0607  139.3431  162.8907 C.ar    1  UNL1        0.0536
      2 C         139.9219  138.2035  163.8561 C.ar    1  UNL1        0.0042
      3 C         140.4981  138.3157  165.2364 C.ar    1  UNL1       -0.0028
      4 C         141.2131  139.5673  165.6513 C.ar    1  UNL1       -0.0061
      5 C         141.3518  140.7069  164.6859 C.ar    1  UNL1       -0.0028
      6 C         140.7756  140.5948  163.3055 C.ar    1  UNL1        0.0042
      7 O         138.0558  139.6139  161.2605 O.2     1  UNL1       -0.2699
      8 C         139.4844  139.2310  161.5102 C.2     1  UNL1        0.2491
      9 N         140.3368  138.7360  160.3796 N.am    1  UNL1       -0.2732
     10 C         141.7655  138.3531  160.6293 C.3     1  UNL1        0.1110
     11 C         142.6179  137.8581  159.4986 C.3     1  UNL1        0.0939
     12 N         142.0417  137.7460  158.1183 N.3     1  UNL1       -0.2711
     13 C         140.6130  138.1290  157.8686 C.3     1  UNL1        0.0939
     14 C         139.7606  138.6239  158.9992 C.3     1  UNL1        0.1110
     15 C         142.8941  137.2511  156.9877 C.3     1  UNL1        0.0576
     16 C         143.3478  135.9024  156.5129 C.3     1  UNL1        0.0160
     17 C         144.0996  136.5510  155.3887 C.3     1  UNL1        0.0028
     18 C         143.6459  137.8997  155.8634 C.3     1  UNL1        0.0160
     19 C         141.7893  139.6794  167.0317 C.3     1  UNL1        0.0991
     20 N         141.1485  140.5857  168.0406 N.3     1  UNL1       -0.2688
     21 C         141.6150  142.0047  168.1774 C.3     1  UNL1        0.0752
     22 C         140.9741  142.9110  169.1864 C.3     1  UNL1        0.0526
     23 C         139.8667  142.3983  170.0585 C.3     1  UNL1        0.1638
     24 F         139.2259  143.3046  171.0674 F       1  UNL1       -0.2372
     25 C         139.4002  140.9793  169.9218 C.3     1  UNL1        0.0526
     26 C         140.0410  140.0730  168.9129 C.3     1  UNL1        0.0752
@<TRIPOS>BOND
     1     7     8    2
     2     8     1    1
     3     1     2   ar
     4     2     3   ar
     5     3     4   ar
     6     4    19    1
     7    19    20    1
     8    20    21    1
     9    21    22    1
    10    22    23    1
    11    23    24    1
    12    23    25    1
    13    25    26    1
    14     4     5   ar
    15     5     6   ar
    16     8     9   am
    17     9    10    1
    18    10    11    1
    19    11    12    1
    20    12    15    1
    21    15    16    1
    22    16    17    1
    23    17    18    1
    24    12    13    1
    25    13    14    1
    26     6     1   ar
    27    14     9    1
    28    26    20    1
    29    18    15    1
@<TRIPOS>MOLECULE
*****
 26 29 0 0 0
SMALL
GASTEIGER

@<TRIPOS>ATOM
      1 C         140.2071  138.8194  163.5722 C.ar    1  UNL1        0.0536
      2 C         140.9993  139.9541  164.1508 C.ar    1  UNL1        0.0042
      3 C         140.7727  140.3794  165.5712 C.ar    1  UNL1       -0.0028
      4 C         139.7540  139.6700  166.4132 C.ar    1  UNL1       -0.0061
      5 C         138.9618  138.5352  165.8346 C.ar    1  UNL1       -0.0028
      6 C         139.1883  138.1099  164.4142 C.ar    1  UNL1        0.0042
      7 O         141.3380  137.2358  161.8508 O.2     1  UNL1       -0.2699
      8 C         140.4336  138.3941  162.1517 C.2     1  UNL1        0.2491
      9 N         139.7557  139.1269  161.0322 N.am    1  UNL1       -0.2732
     10 C         138.8513  140.2852  161.3331 C.3     1  UNL1        0.1110
     11 C         138.1734  141.0181  160.2135 C.3     1  UNL1        0.0939
     12 N         138.4000  140.5927  158.7931 N.3     1  UNL1       -0.2711
     13 C         139.3044  139.4345  158.4922 C.3     1  UNL1        0.0939
     14 C         139.9822  138.7016  159.6117 C.3     1  UNL1        0.1110
     15 C         137.7221  141.3256  157.6736 C.3     1  UNL1        0.0576
     16 C         137.8553  142.6901  157.0650 C.3     1  UNL1        0.0160
     17 C         136.7634  142.3621  156.0903 C.3     1  UNL1        0.0028
     18 C         136.6302  140.9976  156.6989 C.3     1  UNL1        0.0160
     19 C         139.5275  140.0953  167.8337 C.3     1  UNL1        0.0991
     20 N         140.5714  140.8981  168.5518 N.3     1  UNL1       -0.2688
     21 C         140.3467  142.3579  168.8131 C.3     1  UNL1        0.0752
     22 C         141.3907  143.1607  169.5313 C.3     1  UNL1        0.0526
     23 C         142.6594  142.5037  169.9880 C.3     1  UNL1        0.1638
     24 F         143.7033  143.3064  170.7060 F       1  UNL1       -0.2372
     25 C         142.8841  141.0438  169.7266 C.3     1  UNL1        0.0526
     26 C         141.8402  140.2410  169.0085 C.3     1  UNL1        0.0752
@<TRIPOS>BOND
     1     7     8    2
     2     8     1    1
     3     1     2   ar
     4     2     3   ar
     5     3     4   ar
     6     4    19    1
     7    19    20    1
     8    20    21    1
     9    21    22    1
    10    22    23    1
    11    23    24    1
    12    23    25    1
    13    25    26    1
    14     4     5   ar
    15     5     6   ar
    16     8     9   am
    17     9    10    1
    18    10    11    1
    19    11    12    1
    20    12    15    1
    21    15    16    1
    22    16    17    1
    23    17    18    1
    24    12    13    1
    25    13    14    1
    26     6     1   ar
    27    14     9    1
    28    26    20    1
    29    18    15    1
@<TRIPOS>MOLECULE
*****
 26 29 0 0 0
SMALL
GASTEIGER

@<TRIPOS>ATOM
      1 C         143.5405  140.6927  162.7803 C.ar    1  UNL1        0.0536
      2 C         142.2199  141.0274  163.4079 C.ar    1  UNL1        0.0042
      3 C         141.9385  140.6220  164.8243 C.ar    1  UNL1       -0.0028
      4 C         142.9777  139.8819  165.6132 C.ar    1  UNL1       -0.0061
      5 C         144.2983  139.5472  164.9856 C.ar    1  UNL1       -0.0028
      6 C         144.5797  139.9527  163.5691 C.ar    1  UNL1        0.0042
      7 O         144.3417  142.4734  161.0664 O.2     1  UNL1       -0.2699
      8 C         143.8219  141.0982  161.3637 C.2     1  UNL1        0.2491
      9 N         143.5836  140.1283  160.2446 N.am    1  UNL1       -0.2732
     10 C         143.0638  138.7530  160.5419 C.3     1  UNL1        0.1110
     11 C         142.8255  137.7831  159.4226 C.3     1  UNL1        0.0939
     12 N         143.1069  138.1886  158.0062 N.3     1  UNL1       -0.2711
     13 C         143.6267  139.5639  157.7089 C.3     1  UNL1        0.0939
     14 C         143.8650  140.5337  158.8280 C.3     1  UNL1        0.1110
     15 C         142.8686  137.2187  156.8870 C.3     1  UNL1        0.0576
     16 C         141.6764  136.4719  156.3664 C.3     1  UNL1        0.0160
     17 C         142.5315  135.8471  155.3043 C.3     1  UNL1        0.0028
     18 C         143.7237  136.5938  155.8249 C.3     1  UNL1        0.0160
     19 C         142.6963  139.4765  167.0297 C.3     1  UNL1        0.0991
     20 N         141.8767  140.3669  167.9159 N.3     1  UNL1       -0.2688
     21 C         140.4927  139.9538  168.3206 C.3     1  UNL1        0.0752
     22 C         139.6732  140.8443  169.2068 C.3     1  UNL1        0.0526
     23 C         140.2377  142.1478  169.6884 C.3     1  UNL1        0.1638
     24 F         139.4181  143.0383  170.5747 F       1  UNL1       -0.2372
     25 C         141.6217  142.5610  169.2838 C.3     1  UNL1        0.0526
     26 C         142.4412  141.6706  168.3976 C.3     1  UNL1        0.0752
@<TRIPOS>BOND
     1     7     8    2
     2     8     1    1
     3     1     2   ar
     4     2     3   ar
     5     3     4   ar
     6     4    19    1
     7    19    20    1
     8    20    21    1
     9    21    22    1
    10    22    23    1
    11    23    24    1
    12    23    25    1
    13    25    26    1
    14     4     5   ar
    15     5     6   ar
    16     8     9   am
    17     9    10    1
    18    10    11    1
    19    11    12    1
    20    12    15    1
    21    15    16    1
    22    16    17    1
    23    17    18    1
    24    12    13    1
    25    13    14    1
    26     6     1   ar
    27    14     9    1
    28    26    20    1
    29    18    15    1
@<TRIPOS>MOLECULE
*****
 26 29 0 0 0
SMALL
GASTEIGER

@<TRIPOS>ATOM
      1 C         141.9779  138.5825  158.0317 C.ar    1  UNL1        0.0536
      2 C         140.7161  138.4019  158.8225 C.ar    1  UNL1        0.0042
      3 C         140.6441  138.8852  160.2406 C.ar    1  UNL1       -0.0028
      4 C         141.8339  139.5491  160.8680 C.ar    1  UNL1       -0.0061
      5 C         143.0957  139.7297  160.0773 C.ar    1  UNL1       -0.0028
      6 C         143.1677  139.2463  158.6591 C.ar    1  UNL1        0.0042
      7 O         141.6783  139.0185  155.4880 O.2     1  UNL1       -0.2699
      8 C         142.0499  138.0991  156.6135 C.2     1  UNL1        0.2491
      9 N         142.4934  136.6964  156.3208 N.am    1  UNL1       -0.2732
     10 C         142.8649  135.7770  157.4462 C.3     1  UNL1        0.1110
     11 C         143.3085  134.3743  157.1535 C.3     1  UNL1        0.0939
     12 N         143.3805  133.8910  155.7353 N.3     1  UNL1       -0.2711
     13 C         143.0089  134.8104  154.6099 C.3     1  UNL1        0.0939
     14 C         142.5654  136.2131  154.9026 C.3     1  UNL1        0.1110
     15 C         143.8240  132.4883  155.4426 C.3     1  UNL1        0.0576
     16 C         144.7721  131.5197  156.0853 C.3     1  UNL1        0.0160
     17 C         144.4512  130.5046  155.0287 C.3     1  UNL1        0.0028
     18 C         143.5032  131.4732  154.3860 C.3     1  UNL1        0.0160
     19 C         141.7619  140.0325  162.2862 C.3     1  UNL1        0.0991
     20 N         140.8404  139.3617  163.2613 N.3     1  UNL1       -0.2688
     21 C         141.1788  138.0034  163.8005 C.3     1  UNL1        0.0752
     22 C         140.2572  137.3327  164.7756 C.3     1  UNL1        0.0526
     23 C         138.9973  138.0201  165.2115 C.3     1  UNL1        0.1638
     24 F         138.0758  137.3493  166.1866 F       1  UNL1       -0.2372
     25 C         138.6589  139.3783  164.6724 C.3     1  UNL1        0.0526
     26 C         139.5804  140.0491  163.6973 C.3     1  UNL1        0.0752
@<TRIPOS>BOND
     1     7     8    2
     2     8     1    1
     3     1     2   ar
     4     2     3   ar
     5     3     4   ar
     6     4    19    1
     7    19    20    1
     8    20    21    1
     9    21    22    1
    10    22    23    1
    11    23    24    1
    12    23    25    1
    13    25    26    1
    14     4     5   ar
    15     5     6   ar
    16     8     9   am
    17     9    10    1
    18    10    11    1
    19    11    12    1
    20    12    15    1
    21    15    16    1
    22    16    17    1
    23    17    18    1
    24    12    13    1
    25    13    14    1
    26     6     1   ar
    27    14     9    1
    28    26    20    1
    29    18    15    1
@<TRIPOS>MOLECULE
*****
 26 29 0 0 0
SMALL
GASTEIGER

@<TRIPOS>ATOM
      1 C         138.7633  140.9683  159.0807 C.ar    1  UNL1        0.0536
      2 C         138.2335  141.3761  160.4234 C.ar    1  UNL1        0.0042
      3 C         138.9470  140.9500  161.6721 C.ar    1  UNL1       -0.0028
      4 C         140.1901  140.1159  161.5781 C.ar    1  UNL1       -0.0061
      5 C         140.7199  139.7080  160.2354 C.ar    1  UNL1       -0.0028
      6 C         140.0065  140.1342  158.9867 C.ar    1  UNL1        0.0042
      7 O         136.9878  140.5171  157.2383 O.2     1  UNL1       -0.2699
      8 C         138.0499  141.3944  157.8318 C.2     1  UNL1        0.2491
      9 N         138.3986  142.6979  157.1766 N.am    1  UNL1       -0.2732
     10 C         139.4606  143.5752  157.7701 C.3     1  UNL1        0.1110
     11 C         139.8093  144.8787  157.1148 C.3     1  UNL1        0.0939
     12 N         139.0959  145.3049  155.8660 N.3     1  UNL1       -0.2711
     13 C         138.0338  144.4275  155.2725 C.3     1  UNL1        0.0939
     14 C         137.6851  143.1241  155.9278 C.3     1  UNL1        0.1110
     15 C         139.4446  146.6083  155.2108 C.3     1  UNL1        0.0576
     16 C         140.3988  147.0324  154.1340 C.3     1  UNL1        0.0160
     17 C         139.9377  148.4517  154.2841 C.3     1  UNL1        0.0028
     18 C         138.9834  148.0277  155.3609 C.3     1  UNL1        0.0160
     19 C         140.9036  139.6897  162.8269 C.3     1  UNL1        0.0991
     20 N         140.1368  139.5048  164.1028 N.3     1  UNL1       -0.2688
     21 C         140.1943  140.5558  165.1715 C.3     1  UNL1        0.0752
     22 C         139.4274  140.3708  166.4473 C.3     1  UNL1        0.0526
     23 C         138.6031  139.1349  166.6545 C.3     1  UNL1        0.1638
     24 F         137.8363  138.9500  167.9303 F       1  UNL1       -0.2372
     25 C         138.5455  138.0840  165.5858 C.3     1  UNL1        0.0526
     26 C         139.3123  138.2689  164.3099 C.3     1  UNL1        0.0752
@<TRIPOS>BOND
     1     7     8    2
     2     8     1    1
     3     1     2   ar
     4     2     3   ar
     5     3     4   ar
     6     4    19    1
     7    19    20    1
     8    20    21    1
     9    21    22    1
    10    22    23    1
    11    23    24    1
    12    23    25    1
    13    25    26    1
    14     4     5   ar
    15     5     6   ar
    16     8     9   am
    17     9    10    1
    18    10    11    1
    19    11    12    1
    20    12    15    1
    21    15    16    1
    22    16    17    1
    23    17    18    1
    24    12    13    1
    25    13    14    1
    26     6     1   ar
    27    14     9    1
    28    26    20    1
    29    18    15    1
