@<TRIPOS>MOLECULE
*****
 30 32 0 0 0
SMALL
GASTEIGER

@<TRIPOS>ATOM
      1 N         138.9274  140.7159  164.9389 N.ar    1  UNL1       -0.2490
      2 C         138.0545  139.5076  165.1069 C.ar    1  UNL1        0.1024
      3 C         138.1821  139.0372  166.5255 C.ar    1  UNL1        0.1051
      4 C         139.1339  139.9547  167.2342 C.ar    1  UNL1        0.1578
      5 N         139.5944  140.9922  166.2537 N.ar    1  UNL1       -0.1539
      6 C         139.4526  143.0941  161.1550 C.3     1  UNL1        0.0588
      7 C         138.3000  143.3850  162.0697 C.3     1  UNL1        0.0180
      8 C         138.1249  142.5922  163.3310 C.3     1  UNL1        0.0268
      9 C         139.1025  141.5086  163.6776 C.3     1  UNL1        0.1193
     10 C         140.2551  141.2178  162.7628 C.3     1  UNL1        0.1151
     11 C         140.4302  142.0105  161.5015 C.3     1  UNL1        0.0330
     12 C         140.1925  145.2752  159.9527 C.3     1  UNL1        0.0896
     13 N         139.6277  143.8869  159.8937 N.3     1  UNL1       -0.2716
     14 C         139.2380  143.2913  158.5733 C.3     1  UNL1        0.0896
     15 C         141.2327  140.1341  163.1094 C.1     1  UNL1        0.0741
     16 N         142.2103  139.0505  163.4558 N.1     1  UNL1       -0.1958
     17 C         137.4811  137.8565  167.1292 C.2     1  UNL1        0.2470
     18 N         137.4552  136.5461  166.3999 N.am    1  UNL1       -0.3252
     19 O         136.8058  137.9863  168.4624 O.2     1  UNL1       -0.2702
     20 H         137.8984  136.4609  165.5249 H       1  UNL1        0.1453
     21 H         136.9951  135.7711  166.7961 H       1  UNL1        0.1453
     22 N         139.5516  139.8527  168.6713 N.pl3   1  UNL1       -0.2964
     23 H         139.1546  139.1636  169.2516 H       1  UNL1        0.1537
     24 C         140.5744  140.8004  169.2241 C.ar    1  UNL1        0.0495
     25 C         140.1890  142.2127  169.5509 C.ar    1  UNL1        0.0155
     26 C         141.2118  143.1605  170.1037 C.ar    1  UNL1        0.0127
     27 C         142.6200  142.6960  170.3297 C.ar    1  UNL1        0.0578
     28 CL        143.6428  143.6437  170.8825 Cl      1  UNL1       -0.0822
     29 C         143.0054  141.2837  170.0029 C.ar    1  UNL1        0.0127
     30 C         141.9826  140.3359  169.4501 C.ar    1  UNL1        0.0155
@<TRIPOS>BOND
     1    12    13    1
     2    13    14    1
     3     6    13    1
     4     6     7    1
     5     7     8    1
     6     8     9    1
     7     9     1    1
     8     1     2   ar
     9     2     3   ar
    10     3    17    1
    11    17    18   am
    12    17    19    2
    13     3     4   ar
    14     4    22    1
    15    22    24    1
    16    24    25   ar
    17    25    26   ar
    18    26    27   ar
    19    27    28    1
    20    27    29   ar
    21    29    30   ar
    22     4     5   ar
    23     9    10    1
    24    10    15    1
    25    15    16    3
    26    10    11    1
    27    11     6    1
    28     5     1   ar
    29    30    24   ar
    30    18    20    1
    31    18    21    1
    32    22    23    1
@<TRIPOS>MOLECULE
*****
 30 32 0 0 0
SMALL
GASTEIGER

@<TRIPOS>ATOM
      1 N         139.4725  140.7986  164.9435 N.ar    1  UNL1       -0.2490
      2 C         139.1158  139.5619  164.1732 C.ar    1  UNL1        0.1024
      3 C         138.4701  139.9867  162.8876 C.ar    1  UNL1        0.1051
      4 C         138.4278  141.4859  162.8634 C.ar    1  UNL1        0.1578
      5 N         139.0473  141.9877  164.1340 N.ar    1  UNL1       -0.1539
      6 C         141.4680  140.9200  168.9751 C.3     1  UNL1        0.0588
      7 C         142.0013  141.7549  167.8488 C.3     1  UNL1        0.0180
      8 C         141.3362  141.7144  166.5050 C.3     1  UNL1        0.0268
      9 C         140.1377  140.8391  166.2874 C.3     1  UNL1        0.1193
     10 C         139.6044  140.0042  167.4136 C.3     1  UNL1        0.1151
     11 C         140.2696  140.0446  168.7575 C.3     1  UNL1        0.0330
     12 C         141.8696  142.1049  171.2521 C.3     1  UNL1        0.0896
     13 N         142.1332  140.9605  170.3189 N.3     1  UNL1       -0.2716
     14 C         143.0619  139.8565  170.7296 C.3     1  UNL1        0.0896
     15 C         138.4059  139.1287  167.1961 C.1     1  UNL1        0.0741
     16 N         137.2075  138.2533  166.9785 N.1     1  UNL1       -0.1958
     17 C         137.9569  139.0727  161.8147 C.2     1  UNL1        0.2470
     18 N         138.1305  137.5887  161.9473 N.am    1  UNL1       -0.3252
     19 O         137.2701  139.6427  160.6091 O.2     1  UNL1       -0.2702
     20 H         138.5813  137.2146  162.7385 H       1  UNL1        0.1453
     21 H         137.7937  136.9888  161.2431 H       1  UNL1        0.1453
     22 N         137.8648  142.3344  161.7620 N.pl3   1  UNL1       -0.2964
     23 H         136.8936  142.3523  161.6019 H       1  UNL1        0.1537
     24 C         138.7815  143.1557  160.9047 C.ar    1  UNL1        0.0495
     25 C         139.5393  144.3039  161.5026 C.ar    1  UNL1        0.0155
     26 C         140.4560  145.1251  160.6452 C.ar    1  UNL1        0.0127
     27 C         140.6150  144.7982  159.1900 C.ar    1  UNL1        0.0578
     28 CL        141.5317  145.6195  158.3326 Cl      1  UNL1       -0.0822
     29 C         139.8572  143.6501  158.5921 C.ar    1  UNL1        0.0127
     30 C         138.9405  142.8288  159.4494 C.ar    1  UNL1        0.0155
@<TRIPOS>BOND
     1    12    13    1
     2    13    14    1
     3     6    13    1
     4     6     7    1
     5     7     8    1
     6     8     9    1
     7     9     1    1
     8     1     2   ar
     9     2     3   ar
    10     3    17    1
    11    17    18   am
    12    17    19    2
    13     3     4   ar
    14     4    22    1
    15    22    24    1
    16    24    25   ar
    17    25    26   ar
    18    26    27   ar
    19    27    28    1
    20    27    29   ar
    21    29    30   ar
    22     4     5   ar
    23     9    10    1
    24    10    15    1
    25    15    16    3
    26    10    11    1
    27    11     6    1
    28     5     1   ar
    29    30    24   ar
    30    18    20    1
    31    18    21    1
    32    22    23    1
@<TRIPOS>MOLECULE
*****
 30 32 0 0 0
SMALL
GASTEIGER

@<TRIPOS>ATOM
      1 N         139.3759  140.1149  163.6160 N.ar    1  UNL1       -0.2490
      2 C         138.3632  139.8846  164.6983 C.ar    1  UNL1        0.1024
      3 C         139.0940  139.4374  165.9295 C.ar    1  UNL1        0.1051
      4 C         140.5585  139.3913  165.6082 C.ar    1  UNL1        0.1578
      5 N         140.7327  139.8100  164.1784 N.ar    1  UNL1       -0.1539
      6 C         138.4979  141.4805  159.4191 C.3     1  UNL1        0.0588
      7 C         138.1456  140.0855  159.8430 C.3     1  UNL1        0.0180
      8 C         138.4382  139.6303  161.2420 C.3     1  UNL1        0.0268
      9 C         139.0832  140.5701  162.2170 C.3     1  UNL1        0.1193
     10 C         139.4356  141.9651  161.7931 C.3     1  UNL1        0.1151
     11 C         139.1429  142.4203  160.3941 C.3     1  UNL1        0.0330
     12 C         138.8824  143.1566  157.4716 C.3     1  UNL1        0.0896
     13 N         138.2053  141.9357  158.0201 N.3     1  UNL1       -0.2716
     14 C         137.2356  141.1700  157.1697 C.3     1  UNL1        0.0896
     15 C         140.0806  142.9050  162.7681 C.1     1  UNL1        0.0741
     16 N         140.7256  143.8447  163.7432 N.1     1  UNL1       -0.1958
     17 C         138.4700  139.0962  167.2502 C.2     1  UNL1        0.2470
     18 N         137.3166  138.1391  167.3097 N.am    1  UNL1       -0.3252
     19 O         138.9993  139.7122  168.5113 O.2     1  UNL1       -0.2702
     20 H         136.9692  137.7348  166.4820 H       1  UNL1        0.1453
     21 H         136.9070  137.9151  168.1765 H       1  UNL1        0.1453
     22 N         141.6560  138.9960  166.5511 N.pl3   1  UNL1       -0.2964
     23 H         141.9996  138.0734  166.5474 H       1  UNL1        0.1537
     24 C         142.2302  140.0063  167.4995 C.ar    1  UNL1        0.0495
     25 C         142.4428  139.6466  168.9401 C.ar    1  UNL1        0.0155
     26 C         143.0170  140.6569  169.8885 C.ar    1  UNL1        0.0127
     27 C         143.3785  142.0269  169.3964 C.ar    1  UNL1        0.0578
     28 CL        143.9527  143.0373  170.3448 Cl      1  UNL1       -0.0822
     29 C         143.1659  142.3866  167.9558 C.ar    1  UNL1        0.0127
     30 C         142.5917  141.3763  167.0073 C.ar    1  UNL1        0.0155
@<TRIPOS>BOND
     1    12    13    1
     2    13    14    1
     3     6    13    1
     4     6     7    1
     5     7     8    1
     6     8     9    1
     7     9     1    1
     8     1     2   ar
     9     2     3   ar
    10     3    17    1
    11    17    18   am
    12    17    19    2
    13     3     4   ar
    14     4    22    1
    15    22    24    1
    16    24    25   ar
    17    25    26   ar
    18    26    27   ar
    19    27    28    1
    20    27    29   ar
    21    29    30   ar
    22     4     5   ar
    23     9    10    1
    24    10    15    1
    25    15    16    3
    26    10    11    1
    27    11     6    1
    28     5     1   ar
    29    30    24   ar
    30    18    20    1
    31    18    21    1
    32    22    23    1
@<TRIPOS>MOLECULE
*****
 30 32 0 0 0
SMALL
GASTEIGER

@<TRIPOS>ATOM
      1 N         139.9190  139.5884  163.5629 N.ar    1  UNL1       -0.2490
      2 C         139.2638  138.6861  164.5661 C.ar    1  UNL1        0.1024
      3 C         139.0617  139.4677  165.8303 C.ar    1  UNL1        0.1051
      4 C         139.5920  140.8532  165.6084 C.ar    1  UNL1        0.1578
      5 N         140.1218  140.9278  164.2071 N.ar    1  UNL1       -0.1539
      6 C         141.0733  138.4733  159.3588 C.3     1  UNL1        0.0588
      7 C         139.6356  138.7347  159.6976 C.3     1  UNL1        0.0180
      8 C         139.2509  139.1064  161.0989 C.3     1  UNL1        0.0268
      9 C         140.3037  139.2167  162.1615 C.3     1  UNL1        0.1193
     10 C         141.7414  138.9553  161.8228 C.3     1  UNL1        0.1151
     11 C         142.1262  138.5836  160.4215 C.3     1  UNL1        0.0330
     12 C         142.6208  137.1849  157.7171 C.3     1  UNL1        0.0896
     13 N         141.4581  138.1016  157.9575 N.3     1  UNL1       -0.2716
     14 C         140.6802  138.6465  156.7965 C.3     1  UNL1        0.0896
     15 C         142.7944  139.0657  162.8855 C.1     1  UNL1        0.0741
     16 N         143.8473  139.1761  163.9481 N.1     1  UNL1       -0.1958
     17 C         138.4387  138.9541  167.0944 C.2     1  UNL1        0.2470
     18 N         137.4212  137.8535  167.0357 N.am    1  UNL1       -0.3252
     19 O         138.8332  139.5410  168.4173 O.2     1  UNL1       -0.2702
     20 H         137.1623  137.4684  166.1674 H       1  UNL1        0.1453
     21 H         137.0122  137.5164  167.8653 H       1  UNL1        0.1453
     22 N         139.5925  141.9683  166.6117 N.pl3   1  UNL1       -0.2964
     23 H         138.8128  142.5650  166.6847 H       1  UNL1        0.1537
     24 C         140.7808  142.1742  167.5036 C.ar    1  UNL1        0.0495
     25 C         140.5928  142.7123  168.8911 C.ar    1  UNL1        0.0155
     26 C         141.7810  142.9182  169.7830 C.ar    1  UNL1        0.0127
     27 C         143.1573  142.5861  169.2875 C.ar    1  UNL1        0.0578
     28 CL        144.3456  142.7921  170.1795 Cl      1  UNL1       -0.0822
     29 C         143.3453  142.0481  167.9000 C.ar    1  UNL1        0.0127
     30 C         142.1570  141.8421  167.0081 C.ar    1  UNL1        0.0155
@<TRIPOS>BOND
     1    12    13    1
     2    13    14    1
     3     6    13    1
     4     6     7    1
     5     7     8    1
     6     8     9    1
     7     9     1    1
     8     1     2   ar
     9     2     3   ar
    10     3    17    1
    11    17    18   am
    12    17    19    2
    13     3     4   ar
    14     4    22    1
    15    22    24    1
    16    24    25   ar
    17    25    26   ar
    18    26    27   ar
    19    27    28    1
    20    27    29   ar
    21    29    30   ar
    22     4     5   ar
    23     9    10    1
    24    10    15    1
    25    15    16    3
    26    10    11    1
    27    11     6    1
    28     5     1   ar
    29    30    24   ar
    30    18    20    1
    31    18    21    1
    32    22    23    1
@<TRIPOS>MOLECULE
*****
 30 32 0 0 0
SMALL
GASTEIGER

@<TRIPOS>ATOM
      1 N         142.8325  139.7306  163.4074 N.ar    1  UNL1       -0.2490
      2 C         143.7533  139.2166  164.4741 C.ar    1  UNL1        0.1024
      3 C         142.9461  139.0040  165.7204 C.ar    1  UNL1        0.1051
      4 C         141.5263  139.3865  165.4239 C.ar    1  UNL1        0.1578
      5 N         141.4561  139.8356  163.9944 N.ar    1  UNL1       -0.1539
      6 C         143.9951  140.7744  159.1873 C.3     1  UNL1        0.0588
      7 C         143.4704  139.4053  159.5039 C.3     1  UNL1        0.0180
      8 C         143.0828  139.0574  160.9106 C.3     1  UNL1        0.0268
      9 C         143.2200  140.0785  162.0007 C.3     1  UNL1        0.1193
     10 C         143.7447  141.4476  161.6841 C.3     1  UNL1        0.1151
     11 C         144.1322  141.7955  160.2774 C.3     1  UNL1        0.0330
     12 C         144.0742  140.1728  156.6611 C.3     1  UNL1        0.0896
     13 N         144.3826  141.1223  157.7806 N.3     1  UNL1       -0.2716
     14 C         145.0785  142.4196  157.4935 C.3     1  UNL1        0.0896
     15 C         143.8819  142.4689  162.7742 C.1     1  UNL1        0.0741
     16 N         144.0191  143.4901  163.8643 N.1     1  UNL1       -0.1958
     17 C         143.4671  138.4976  167.0327 C.2     1  UNL1        0.2470
     18 N         144.4893  137.4002  167.0606 N.am    1  UNL1       -0.3252
     19 O         142.9660  139.0887  168.3170 O.2     1  UNL1       -0.2702
     20 H         144.8182  137.0123  166.2177 H       1  UNL1        0.1453
     21 H         144.8313  137.0679  167.9219 H       1  UNL1        0.1453
     22 N         140.3783  139.3299  166.3876 N.pl3   1  UNL1       -0.2964
     23 H         139.7098  138.6107  166.3153 H       1  UNL1        0.1537
     24 C         140.2486  140.3690  167.4616 C.ar    1  UNL1        0.0495
     25 C         139.6014  140.0198  168.7689 C.ar    1  UNL1        0.0155
     26 C         139.4717  141.0589  169.8428 C.ar    1  UNL1        0.0127
     27 C         139.9893  142.4473  169.6095 C.ar    1  UNL1        0.0578
     28 CL        139.8597  143.4864  170.6834 Cl      1  UNL1       -0.0822
     29 C         140.6366  142.7965  168.3021 C.ar    1  UNL1        0.0127
     30 C         140.7662  141.7574  167.2282 C.ar    1  UNL1        0.0155
@<TRIPOS>BOND
     1    12    13    1
     2    13    14    1
     3     6    13    1
     4     6     7    1
     5     7     8    1
     6     8     9    1
     7     9     1    1
     8     1     2   ar
     9     2     3   ar
    10     3    17    1
    11    17    18   am
    12    17    19    2
    13     3     4   ar
    14     4    22    1
    15    22    24    1
    16    24    25   ar
    17    25    26   ar
    18    26    27   ar
    19    27    28    1
    20    27    29   ar
    21    29    30   ar
    22     4     5   ar
    23     9    10    1
    24    10    15    1
    25    15    16    3
    26    10    11    1
    27    11     6    1
    28     5     1   ar
    29    30    24   ar
    30    18    20    1
    31    18    21    1
    32    22    23    1
@<TRIPOS>MOLECULE
*****
 30 32 0 0 0
SMALL
GASTEIGER

@<TRIPOS>ATOM
      1 N         140.4518  143.4141  164.3249 N.ar    1  UNL1       -0.2490
      2 C         140.9244  144.5643  163.4860 C.ar    1  UNL1        0.1024
      3 C         140.1008  144.5932  162.2327 C.ar    1  UNL1        0.1051
      4 C         139.1191  143.4609  162.2969 C.ar    1  UNL1        0.1578
      5 N         139.3361  142.7322  163.5900 N.ar    1  UNL1       -0.1539
      6 C         142.0929  142.2193  168.3410 C.3     1  UNL1        0.0588
      7 C         140.6859  142.7263  168.2264 C.3     1  UNL1        0.0180
      8 C         140.1389  143.1246  166.8877 C.3     1  UNL1        0.0268
      9 C         140.9989  143.0158  165.6636 C.3     1  UNL1        0.1193
     10 C         142.4059  142.5088  165.7781 C.3     1  UNL1        0.1151
     11 C         142.9529  142.1105  167.1168 C.3     1  UNL1        0.0330
     12 C         143.0280  142.8741  170.6748 C.3     1  UNL1        0.0896
     13 N         142.6400  141.8210  169.6797 N.3     1  UNL1       -0.2716
     14 C         142.7990  140.3696  170.0233 C.3     1  UNL1        0.0896
     15 C         143.2659  142.4000  164.5540 C.1     1  UNL1        0.0741
     16 N         144.1259  142.2912  163.3298 N.1     1  UNL1       -0.1958
     17 C         140.2353  145.5810  161.1119 C.2     1  UNL1        0.2470
     18 N         141.4242  145.5225  160.1993 N.am    1  UNL1       -0.3252
     19 O         139.1808  146.6273  160.9038 O.2     1  UNL1       -0.2702
     20 H         142.1163  144.8357  160.3359 H       1  UNL1        0.1453
     21 H         141.5125  146.1708  159.4636 H       1  UNL1        0.1453
     22 N         138.0996  143.1175  161.2517 N.pl3   1  UNL1       -0.2964
     23 H         137.2170  143.5536  161.2630 H       1  UNL1        0.1537
     24 C         138.4247  142.1097  160.1893 C.ar    1  UNL1        0.0495
     25 C         138.4364  140.6470  160.5215 C.ar    1  UNL1        0.0155
     26 C         138.7614  139.6392  159.4592 C.ar    1  UNL1        0.0127
     27 C         139.0748  140.0941  158.0646 C.ar    1  UNL1        0.0578
     28 CL        139.3999  139.0863  157.0022 Cl      1  UNL1       -0.0822
     29 C         139.0631  141.5568  157.7324 C.ar    1  UNL1        0.0127
     30 C         138.7380  142.5646  158.7948 C.ar    1  UNL1        0.0155
@<TRIPOS>BOND
     1    12    13    1
     2    13    14    1
     3     6    13    1
     4     6     7    1
     5     7     8    1
     6     8     9    1
     7     9     1    1
     8     1     2   ar
     9     2     3   ar
    10     3    17    1
    11    17    18   am
    12    17    19    2
    13     3     4   ar
    14     4    22    1
    15    22    24    1
    16    24    25   ar
    17    25    26   ar
    18    26    27   ar
    19    27    28    1
    20    27    29   ar
    21    29    30   ar
    22     4     5   ar
    23     9    10    1
    24    10    15    1
    25    15    16    3
    26    10    11    1
    27    11     6    1
    28     5     1   ar
    29    30    24   ar
    30    18    20    1
    31    18    21    1
    32    22    23    1
@<TRIPOS>MOLECULE
*****
 30 32 0 0 0
SMALL
GASTEIGER

@<TRIPOS>ATOM
      1 N         139.9207  139.9263  160.6020 N.ar    1  UNL1       -0.2490
      2 C         139.7643  141.4165  160.5342 C.ar    1  UNL1        0.1024
      3 C         138.9089  141.8459  161.6892 C.ar    1  UNL1        0.1051
      4 C         138.5367  140.6210  162.4709 C.ar    1  UNL1        0.1578
      5 N         139.1620  139.4346  161.7989 N.ar    1  UNL1       -0.1539
      6 C         142.2561  137.3780  157.7206 C.3     1  UNL1        0.0588
      7 C         140.9160  137.9229  157.3240 C.3     1  UNL1        0.0180
      8 C         140.1376  138.7723  158.2844 C.3     1  UNL1        0.0268
      9 C         140.6992  139.0768  159.6416 C.3     1  UNL1        0.1193
     10 C         142.0392  138.5319  160.0382 C.3     1  UNL1        0.1151
     11 C         142.8176  137.6825  159.0778 C.3     1  UNL1        0.0330
     12 C         143.7012  137.1576  155.5728 C.3     1  UNL1        0.0896
     13 N         143.0345  136.5286  156.7602 N.3     1  UNL1       -0.2716
     14 C         143.1463  135.0501  156.9870 C.3     1  UNL1        0.0896
     15 C         142.6008  138.8365  161.3954 C.1     1  UNL1        0.0741
     16 N         143.1625  139.1409  162.7525 N.1     1  UNL1       -0.1958
     17 C         138.4980  143.2531  162.0068 C.2     1  UNL1        0.2470
     18 N         139.1022  144.3995  161.2513 N.am    1  UNL1       -0.3252
     19 O         137.4828  143.5140  163.0798 O.2     1  UNL1       -0.2702
     20 H         139.7685  144.2283  160.5471 H       1  UNL1        0.1453
     21 H         138.8325  145.3231  161.4598 H       1  UNL1        0.1453
     22 N         137.6881  140.5881  163.7073 N.pl3   1  UNL1       -0.2964
     23 H         136.7089  140.6584  163.6343 H       1  UNL1        0.1537
     24 C         138.3316  140.4483  165.0551 C.ar    1  UNL1        0.0495
     25 C         139.3253  141.4705  165.5215 C.ar    1  UNL1        0.0155
     26 C         139.9687  141.3307  166.8691 C.ar    1  UNL1        0.0127
     27 C         139.6185  140.1686  167.7505 C.ar    1  UNL1        0.0578
     28 CL        140.2619  140.0287  169.0983 Cl      1  UNL1       -0.0822
     29 C         138.6248  139.1464  167.2842 C.ar    1  UNL1        0.0127
     30 C         137.9813  139.2862  165.9364 C.ar    1  UNL1        0.0155
@<TRIPOS>BOND
     1    12    13    1
     2    13    14    1
     3     6    13    1
     4     6     7    1
     5     7     8    1
     6     8     9    1
     7     9     1    1
     8     1     2   ar
     9     2     3   ar
    10     3    17    1
    11    17    18   am
    12    17    19    2
    13     3     4   ar
    14     4    22    1
    15    22    24    1
    16    24    25   ar
    17    25    26   ar
    18    26    27   ar
    19    27    28    1
    20    27    29   ar
    21    29    30   ar
    22     4     5   ar
    23     9    10    1
    24    10    15    1
    25    15    16    3
    26    10    11    1
    27    11     6    1
    28     5     1   ar
    29    30    24   ar
    30    18    20    1
    31    18    21    1
    32    22    23    1
@<TRIPOS>MOLECULE
*****
 30 32 0 0 0
SMALL
GASTEIGER

@<TRIPOS>ATOM
      1 N         141.2840  141.4820  161.8251 N.ar    1  UNL1       -0.2490
      2 C         141.1869  142.9788  161.8434 C.ar    1  UNL1        0.1024
      3 C         140.6939  143.3948  163.1976 C.ar    1  UNL1        0.1051
      4 C         140.4864  142.1552  164.0163 C.ar    1  UNL1        0.1578
      5 N         140.8511  140.9731  163.1680 N.ar    1  UNL1       -0.1539
      6 C         142.6366  138.9614  158.3513 C.3     1  UNL1        0.0588
      7 C         141.1775  139.2494  158.5458 C.3     1  UNL1        0.0180
      8 C         140.7266  140.0896  159.7037 C.3     1  UNL1        0.0268
      9 C         141.7349  140.6418  160.6672 C.3     1  UNL1        0.1193
     10 C         143.1940  140.3539  160.4727 C.3     1  UNL1        0.1151
     11 C         143.6449  139.5137  159.3148 C.3     1  UNL1        0.0330
     12 C         143.7976  138.7584  156.0360 C.3     1  UNL1        0.0896
     13 N         143.0875  138.1212  157.1934 N.3     1  UNL1       -0.2716
     14 C         142.8283  136.6438  157.1929 C.3     1  UNL1        0.0896
     15 C         144.2024  140.9061  161.4363 C.1     1  UNL1        0.0741
     16 N         145.2108  141.4583  162.3997 N.1     1  UNL1       -0.1958
     17 C         140.4512  144.8032  163.6531 C.2     1  UNL1        0.2470
     18 N         141.2612  145.9274  163.0787 N.am    1  UNL1       -0.3252
     19 O         139.3984  145.0874  164.6831 O.2     1  UNL1       -0.2702
     20 H         141.9522  145.7408  162.4027 H       1  UNL1        0.1453
     21 H         141.1019  146.8518  163.3776 H       1  UNL1        0.1453
     22 N         139.9996  142.1063  165.4343 N.pl3   1  UNL1       -0.2964
     23 H         139.0389  142.0009  165.6216 H       1  UNL1        0.1537
     24 C         140.9767  142.2179  166.5669 C.ar    1  UNL1        0.0495
     25 C         140.4814  142.4352  167.9660 C.ar    1  UNL1        0.0155
     26 C         141.4584  142.5469  169.0986 C.ar    1  UNL1        0.0127
     27 C         142.9308  142.4412  168.8322 C.ar    1  UNL1        0.0578
     28 CL        143.9078  142.5529  169.9649 Cl      1  UNL1       -0.0822
     29 C         143.4261  142.2239  167.4331 C.ar    1  UNL1        0.0127
     30 C         142.4490  142.1123  166.3005 C.ar    1  UNL1        0.0155
@<TRIPOS>BOND
     1    12    13    1
     2    13    14    1
     3     6    13    1
     4     6     7    1
     5     7     8    1
     6     8     9    1
     7     9     1    1
     8     1     2   ar
     9     2     3   ar
    10     3    17    1
    11    17    18   am
    12    17    19    2
    13     3     4   ar
    14     4    22    1
    15    22    24    1
    16    24    25   ar
    17    25    26   ar
    18    26    27   ar
    19    27    28    1
    20    27    29   ar
    21    29    30   ar
    22     4     5   ar
    23     9    10    1
    24    10    15    1
    25    15    16    3
    26    10    11    1
    27    11     6    1
    28     5     1   ar
    29    30    24   ar
    30    18    20    1
    31    18    21    1
    32    22    23    1
@<TRIPOS>MOLECULE
*****
 30 32 0 0 0
SMALL
GASTEIGER

@<TRIPOS>ATOM
      1 N         142.2317  143.5779  162.2320 N.ar    1  UNL1       -0.2490
      2 C         143.4062  143.4676  163.1585 C.ar    1  UNL1        0.1024
      3 C         142.8819  143.3049  164.5544 C.ar    1  UNL1        0.1051
      4 C         141.3833  143.3147  164.4907 C.ar    1  UNL1        0.1578
      5 N         140.9814  143.4834  163.0554 N.ar    1  UNL1       -0.1539
      6 C         142.4249  144.1006  157.7667 C.3     1  UNL1        0.0588
      7 C         143.3448  143.1320  158.4489 C.3     1  UNL1        0.0180
      8 C         143.2804  142.9578  159.9374 C.3     1  UNL1        0.0268
      9 C         142.2961  143.7521  160.7436 C.3     1  UNL1        0.1193
     10 C         141.3761  144.7207  160.0613 C.3     1  UNL1        0.1151
     11 C         141.4405  144.8949  158.5729 C.3     1  UNL1        0.0330
     12 C         141.7366  145.3934  155.6208 C.3     1  UNL1        0.0896
     13 N         142.4893  144.2748  156.2782 N.3     1  UNL1       -0.2716
     14 C         143.3064  143.3305  155.4472 C.3     1  UNL1        0.0896
     15 C         140.3917  145.5151  160.8676 C.1     1  UNL1        0.0741
     16 N         139.4074  146.3096  161.6737 N.1     1  UNL1       -0.1958
     17 C         143.7107  143.1583  165.7960 C.2     1  UNL1        0.2470
     18 N         144.9811  143.9414  165.9465 N.am    1  UNL1       -0.3252
     19 O         143.2690  142.2285  166.8871 O.2     1  UNL1       -0.2702
     20 H         145.2710  144.5516  165.2304 H       1  UNL1        0.1453
     21 H         145.5251  143.8451  166.7614 H       1  UNL1        0.1453
     22 N         140.4503  143.1794  165.6574 N.pl3   1  UNL1       -0.2964
     23 H         140.2872  143.9492  166.2491 H       1  UNL1        0.1537
     24 C         139.7658  141.8713  165.9227 C.ar    1  UNL1        0.0495
     25 C         138.8297  141.2942  164.9026 C.ar    1  UNL1        0.0155
     26 C         138.1453  139.9862  165.1679 C.ar    1  UNL1        0.0127
     27 C         138.3969  139.2552  166.4533 C.ar    1  UNL1        0.0578
     28 CL        137.7124  137.9470  166.7186 Cl      1  UNL1       -0.0822
     29 C         139.3330  139.8323  167.4734 C.ar    1  UNL1        0.0127
     30 C         140.0174  141.1404  167.2081 C.ar    1  UNL1        0.0155
@<TRIPOS>BOND
     1    12    13    1
     2    13    14    1
     3     6    13    1
     4     6     7    1
     5     7     8    1
     6     8     9    1
     7     9     1    1
     8     1     2   ar
     9     2     3   ar
    10     3    17    1
    11    17    18   am
    12    17    19    2
    13     3     4   ar
    14     4    22    1
    15    22    24    1
    16    24    25   ar
    17    25    26   ar
    18    26    27   ar
    19    27    28    1
    20    27    29   ar
    21    29    30   ar
    22     4     5   ar
    23     9    10    1
    24    10    15    1
    25    15    16    3
    26    10    11    1
    27    11     6    1
    28     5     1   ar
    29    30    24   ar
    30    18    20    1
    31    18    21    1
    32    22    23    1
