@<TRIPOS>MOLECULE
*****
 34 38 0 0 0
SMALL
GASTEIGER

@<TRIPOS>ATOM
      1 C         139.8579  137.5626  163.5499 C.2     1  UNL1        0.2302
      2 O         141.0714  136.6910  163.4170 O.2     1  UNL1       -0.2745
      3 N         139.4516  138.4601  162.4187 N.am    1  UNL1       -0.2764
      4 C         140.2588  138.4859  161.1546 C.3     1  UNL1        0.1107
      5 C         139.8524  139.3834  160.0235 C.3     1  UNL1        0.0939
      6 N         138.6389  140.2550  160.1564 N.3     1  UNL1       -0.2695
      7 C         137.8317  140.2292  161.4204 C.3     1  UNL1        0.0939
      8 C         138.2381  139.3317  162.5516 C.3     1  UNL1        0.1107
      9 C         139.0507  137.5368  164.8139 C.3     1  UNL1        0.1128
     10 C         137.1986  137.7215  167.1667 C.3     1  UNL1        0.0309
     11 C         138.3636  138.6595  167.0539 C.ar    1  UNL1       -0.0208
     12 C         138.6027  139.6899  168.1174 C.ar    1  UNL1        0.0344
     13 C         139.7678  140.6280  168.0046 C.ar    1  UNL1        0.1669
     14 N         140.6938  140.5356  166.8282 N.ar    1  UNL1       -0.2252
     15 C         140.4547  139.5052  165.7646 C.ar    1  UNL1        0.0964
     16 C         139.2897  138.5672  165.8774 C.ar    1  UNL1        0.0023
     17 N         140.0068  141.6583  169.0682 N.ar    1  UNL1       -0.1708
     18 C         140.8937  142.8618  168.9464 C.ar    1  UNL1        0.2272
     19 N         140.8358  143.6133  170.2433 N.ar    1  UNL1       -0.1044
     20 N         139.9131  142.8743  171.1666 N.ar    1  UNL1       -0.0222
     21 N         139.4008  141.6660  170.4403 N.ar    1  UNL1       -0.0371
     22 C         138.2326  141.1525  159.0252 C.3     1  UNL1        0.0769
     23 C         138.5482  142.6179  159.0800 C.3     1  UNL1        0.0433
     24 C         139.6817  143.1097  159.9306 C.ar    1  UNL1       -0.0249
     25 C         141.0741  143.1499  159.3746 C.ar    1  UNL1       -0.0043
     26 C         142.2075  143.6418  160.2252 C.ar    1  UNL1        0.0059
     27 C         141.9483  144.0934  161.6319 C.ar    1  UNL1        0.0748
     28 C         140.5558  144.0533  162.1880 C.ar    1  UNL1        0.0233
     29 C         139.4224  143.5614  161.3374 C.ar    1  UNL1       -0.0260
     30 C         138.0298  143.5212  161.8934 C.3     1  UNL1        0.0305
     31 C         140.6054  144.5589  163.5993 C.3     1  UNL1        0.2352
     32 O         142.0287  144.9116  163.9154 O.3     1  UNL1       -0.4404
     33 C         142.8587  144.6239  162.6995 C.2     1  UNL1        0.3413
     34 O         144.3390  144.8305  162.5734 O.2     1  UNL1       -0.2449
@<TRIPOS>BOND
     1    10    11    1
     2    11    12   ar
     3    12    13   ar
     4    13    17    1
     5    17    18   ar
     6    18    19   ar
     7    19    20   ar
     8    20    21   ar
     9    13    14   ar
    10    14    15   ar
    11    15    16   ar
    12    16     9    1
    13     9     1    1
    14     1     2    2
    15     1     3   am
    16     3     4    1
    17     4     5    1
    18     5     6    1
    19     6    22    1
    20    22    23    1
    21    23    24    1
    22    24    25   ar
    23    25    26   ar
    24    26    27   ar
    25    27    28   ar
    26    28    29   ar
    27    29    30    1
    28    28    31    1
    29    31    32    1
    30    32    33    1
    31    33    34    2
    32     6     7    1
    33     7     8    1
    34    16    11   ar
    35     8     3    1
    36    21    17   ar
    37    29    24   ar
    38    33    27    1
@<TRIPOS>MOLECULE
*****
 34 38 0 0 0
SMALL
GASTEIGER

@<TRIPOS>ATOM
      1 C         138.1017  140.2446  163.3073 C.2     1  UNL1        0.2302
      2 O         136.9940  141.1859  162.9372 O.2     1  UNL1       -0.2745
      3 N         139.2945  140.1000  162.4093 N.am    1  UNL1       -0.2764
      4 C         139.3796  140.8966  161.1411 C.3     1  UNL1        0.1107
      5 C         140.5723  140.7519  160.2431 C.3     1  UNL1        0.0939
      6 N         141.6800  139.8106  160.6133 N.3     1  UNL1       -0.2695
      7 C         141.5950  139.0140  161.8814 C.3     1  UNL1        0.0939
      8 C         140.4022  139.1587  162.7794 C.3     1  UNL1        0.1107
      9 C         138.0167  139.4480  164.5754 C.3     1  UNL1        0.1128
     10 C         137.4539  138.1053  167.1986 C.3     1  UNL1        0.0309
     11 C         138.3513  139.3062  167.1480 C.ar    1  UNL1       -0.0208
     12 C         138.9673  139.8359  168.4089 C.ar    1  UNL1        0.0344
     13 C         139.8647  141.0368  168.3584 C.ar    1  UNL1        0.1669
     14 N         140.1460  141.7081  167.0468 N.ar    1  UNL1       -0.2252
     15 C         139.5300  141.1784  165.7858 C.ar    1  UNL1        0.0964
     16 C         138.6326  139.9775  165.8364 C.ar    1  UNL1        0.0023
     17 N         140.4806  141.5664  169.6194 N.ar    1  UNL1       -0.1708
     18 C         141.5976  142.5639  169.7036 C.ar    1  UNL1        0.2272
     19 N         141.8950  142.8054  171.1539 N.ar    1  UNL1       -0.1044
     20 N         140.9617  141.9571  171.9660 N.ar    1  UNL1       -0.0222
     21 N         140.0876  141.1913  171.0176 N.ar    1  UNL1       -0.0371
     22 C         142.8727  139.6660  159.7152 C.3     1  UNL1        0.0769
     23 C         144.1100  140.4731  159.9758 C.3     1  UNL1        0.0433
     24 C         144.2236  141.2880  161.2301 C.ar    1  UNL1       -0.0249
     25 C         144.8313  140.6869  162.4626 C.ar    1  UNL1       -0.0043
     26 C         144.9449  141.5018  163.7168 C.ar    1  UNL1        0.0059
     27 C         144.4507  142.9179  163.7384 C.ar    1  UNL1        0.0748
     28 C         143.8429  143.5191  162.5058 C.ar    1  UNL1        0.0233
     29 C         143.7293  142.7042  161.2516 C.ar    1  UNL1       -0.0260
     30 C         143.1215  143.3053  160.0190 C.3     1  UNL1        0.0305
     31 C         143.4460  144.9298  162.8255 C.3     1  UNL1        0.2352
     32 O         143.8086  145.2006  164.2556 O.3     1  UNL1       -0.4404
     33 C         144.4295  143.9571  164.8198 C.2     1  UNL1        0.3413
     34 O         144.9396  143.7835  166.2197 O.2     1  UNL1       -0.2449
@<TRIPOS>BOND
     1    10    11    1
     2    11    12   ar
     3    12    13   ar
     4    13    17    1
     5    17    18   ar
     6    18    19   ar
     7    19    20   ar
     8    20    21   ar
     9    13    14   ar
    10    14    15   ar
    11    15    16   ar
    12    16     9    1
    13     9     1    1
    14     1     2    2
    15     1     3   am
    16     3     4    1
    17     4     5    1
    18     5     6    1
    19     6    22    1
    20    22    23    1
    21    23    24    1
    22    24    25   ar
    23    25    26   ar
    24    26    27   ar
    25    27    28   ar
    26    28    29   ar
    27    29    30    1
    28    28    31    1
    29    31    32    1
    30    32    33    1
    31    33    34    2
    32     6     7    1
    33     7     8    1
    34    16    11   ar
    35     8     3    1
    36    21    17   ar
    37    29    24   ar
    38    33    27    1
@<TRIPOS>MOLECULE
*****
 34 38 0 0 0
SMALL
GASTEIGER

@<TRIPOS>ATOM
      1 C         140.4268  137.9170  163.3519 C.2     1  UNL1        0.2302
      2 O         139.0027  137.5494  163.0571 O.2     1  UNL1       -0.2745
      3 N         141.2869  138.5089  162.2750 N.am    1  UNL1       -0.2764
      4 C         140.7231  138.7333  160.9032 C.3     1  UNL1        0.1107
      5 C         141.5833  139.3253  159.8264 C.3     1  UNL1        0.0939
      6 N         143.0074  139.6928  160.1212 N.3     1  UNL1       -0.2695
      7 C         143.5713  139.4685  161.4930 C.3     1  UNL1        0.0939
      8 C         142.7110  138.8765  162.5699 C.3     1  UNL1        0.1107
      9 C         140.9907  137.6926  164.7237 C.3     1  UNL1        0.1128
     10 C         143.3186  138.6533  166.3541 C.3     1  UNL1        0.0309
     11 C         141.9455  139.1992  166.6127 C.ar    1  UNL1       -0.0208
     12 C         141.7364  140.2254  167.6865 C.ar    1  UNL1        0.0344
     13 C         140.3634  140.7714  167.9451 C.ar    1  UNL1        0.1669
     14 N         139.1995  140.2910  167.1299 N.ar    1  UNL1       -0.2252
     15 C         139.4086  139.2647  166.0560 C.ar    1  UNL1        0.0964
     16 C         140.7817  138.7188  165.7975 C.ar    1  UNL1        0.0023
     17 N         140.1544  141.7976  169.0189 N.ar    1  UNL1       -0.1708
     18 C         140.5330  143.2468  168.9393 C.ar    1  UNL1        0.2272
     19 N         140.1426  143.8996  170.2321 N.ar    1  UNL1       -0.1044
     20 N         139.5227  142.8539  171.1109 N.ar    1  UNL1       -0.0222
     21 N         139.5300  141.5547  170.3610 N.ar    1  UNL1       -0.0371
     22 C         143.8675  140.2848  159.0443 C.3     1  UNL1        0.0769
     23 C         144.0994  141.7661  158.9991 C.3     1  UNL1        0.0433
     24 C         143.1338  142.6972  159.6706 C.ar    1  UNL1       -0.0249
     25 C         141.8612  143.0851  158.9781 C.ar    1  UNL1       -0.0043
     26 C         140.8957  144.0162  159.6495 C.ar    1  UNL1        0.0059
     27 C         141.2029  144.5594  161.0135 C.ar    1  UNL1        0.0748
     28 C         142.4757  144.1716  161.7061 C.ar    1  UNL1        0.0233
     29 C         143.4412  143.2404  161.0346 C.ar    1  UNL1       -0.0260
     30 C         144.7140  142.8525  161.7272 C.3     1  UNL1        0.0305
     31 C         142.5076  144.8612  163.0377 C.3     1  UNL1        0.2352
     32 O         141.2545  145.6754  163.1681 O.3     1  UNL1       -0.4404
     33 C         140.4482  145.4888  161.9171 C.2     1  UNL1        0.3413
     34 O         139.1203  146.1208  161.6216 O.2     1  UNL1       -0.2449
@<TRIPOS>BOND
     1    10    11    1
     2    11    12   ar
     3    12    13   ar
     4    13    17    1
     5    17    18   ar
     6    18    19   ar
     7    19    20   ar
     8    20    21   ar
     9    13    14   ar
    10    14    15   ar
    11    15    16   ar
    12    16     9    1
    13     9     1    1
    14     1     2    2
    15     1     3   am
    16     3     4    1
    17     4     5    1
    18     5     6    1
    19     6    22    1
    20    22    23    1
    21    23    24    1
    22    24    25   ar
    23    25    26   ar
    24    26    27   ar
    25    27    28   ar
    26    28    29   ar
    27    29    30    1
    28    28    31    1
    29    31    32    1
    30    32    33    1
    31    33    34    2
    32     6     7    1
    33     7     8    1
    34    16    11   ar
    35     8     3    1
    36    21    17   ar
    37    29    24   ar
    38    33    27    1
@<TRIPOS>MOLECULE
*****
 34 38 0 0 0
SMALL
GASTEIGER

@<TRIPOS>ATOM
      1 C         144.6335  140.0917  163.1544 C.2     1  UNL1        0.2302
      2 O         145.5792  141.2391  162.9569 O.2     1  UNL1       -0.2745
      3 N         143.7015  139.6893  162.0501 N.am    1  UNL1       -0.2764
      4 C         143.7152  140.4343  160.7482 C.3     1  UNL1        0.1107
      5 C         142.7833  140.0318  159.6439 C.3     1  UNL1        0.0939
      6 N         141.8376  138.8844  159.8415 N.3     1  UNL1       -0.2695
      7 C         141.8238  138.1394  161.1433 C.3     1  UNL1        0.0939
      8 C         142.7558  138.5419  162.2476 C.3     1  UNL1        0.1107
      9 C         144.6197  139.3467  164.4562 C.3     1  UNL1        0.1128
     10 C         144.3118  137.6056  166.8799 C.3     1  UNL1        0.0309
     11 C         143.4646  138.8339  166.7262 C.ar    1  UNL1       -0.0208
     12 C         142.4635  139.1917  167.7844 C.ar    1  UNL1        0.0344
     13 C         141.6163  140.4200  167.6308 C.ar    1  UNL1        0.1669
     14 N         141.7703  141.2905  166.4190 N.ar    1  UNL1       -0.2252
     15 C         142.7715  140.9327  165.3607 C.ar    1  UNL1        0.0964
     16 C         143.6186  139.7044  165.5144 C.ar    1  UNL1        0.0023
     17 N         140.6152  140.7778  168.6889 N.ar    1  UNL1       -0.1708
     18 C         140.6495  141.9997  169.5582 C.ar    1  UNL1        0.2272
     19 N         139.4595  141.9534  170.4701 N.ar    1  UNL1       -0.1044
     20 N         138.6896  140.7028  170.1645 N.ar    1  UNL1       -0.0222
     21 N         139.4039  139.9763  169.0637 N.ar    1  UNL1       -0.0371
     22 C         140.9056  138.4820  158.7372 C.3     1  UNL1        0.0769
     23 C         139.4929  138.9862  158.7269 C.3     1  UNL1        0.0433
     24 C         139.0942  140.1188  159.6261 C.ar    1  UNL1       -0.0249
     25 C         139.3131  141.5366  159.1884 C.ar    1  UNL1       -0.0043
     26 C         138.9144  142.6691  160.0875 C.ar    1  UNL1        0.0059
     27 C         138.2969  142.3837  161.4244 C.ar    1  UNL1        0.0748
     28 C         138.0780  140.9658  161.8621 C.ar    1  UNL1        0.0233
     29 C         138.4767  139.8333  160.9629 C.ar    1  UNL1       -0.0260
     30 C         138.2578  138.4153  161.4006 C.3     1  UNL1        0.0305
     31 C         137.4524  140.9927  163.2251 C.3     1  UNL1        0.2352
     32 O         137.2846  142.4273  163.6298 O.3     1  UNL1       -0.4404
     33 C         137.8065  143.2870  162.5169 C.2     1  UNL1        0.3413
     34 O         137.8333  144.7867  162.4996 O.2     1  UNL1       -0.2449
@<TRIPOS>BOND
     1    10    11    1
     2    11    12   ar
     3    12    13   ar
     4    13    17    1
     5    17    18   ar
     6    18    19   ar
     7    19    20   ar
     8    20    21   ar
     9    13    14   ar
    10    14    15   ar
    11    15    16   ar
    12    16     9    1
    13     9     1    1
    14     1     2    2
    15     1     3   am
    16     3     4    1
    17     4     5    1
    18     5     6    1
    19     6    22    1
    20    22    23    1
    21    23    24    1
    22    24    25   ar
    23    25    26   ar
    24    26    27   ar
    25    27    28   ar
    26    28    29   ar
    27    29    30    1
    28    28    31    1
    29    31    32    1
    30    32    33    1
    31    33    34    2
    32     6     7    1
    33     7     8    1
    34    16    11   ar
    35     8     3    1
    36    21    17   ar
    37    29    24   ar
    38    33    27    1
@<TRIPOS>MOLECULE
*****
 34 38 0 0 0
SMALL
GASTEIGER

@<TRIPOS>ATOM
      1 C         137.9153  140.1998  163.1463 C.2     1  UNL1        0.2302
      2 O         136.9662  141.3603  163.1002 O.2     1  UNL1       -0.2745
      3 N         138.7815  139.8917  161.9610 N.am    1  UNL1       -0.2764
      4 C         138.6985  140.7442  160.7296 C.3     1  UNL1        0.1107
      5 C         139.5646  140.4361  159.5444 C.3     1  UNL1        0.0939
      6 N         140.5138  139.2756  159.5905 N.3     1  UNL1       -0.2695
      7 C         140.5969  138.4230  160.8218 C.3     1  UNL1        0.0939
      8 C         139.7306  138.7312  162.0071 C.3     1  UNL1        0.1107
      9 C         137.9984  139.3473  164.3777 C.3     1  UNL1        0.1128
     10 C         137.5065  137.9886  167.0068 C.3     1  UNL1        0.0309
     11 C         138.3600  139.2206  166.9474 C.ar    1  UNL1       -0.0208
     12 C         138.9677  139.7733  168.2025 C.ar    1  UNL1        0.0344
     13 C         139.8213  141.0054  168.1431 C.ar    1  UNL1        0.1669
     14 N         140.0672  141.6847  166.8285 N.ar    1  UNL1       -0.2252
     15 C         139.4595  141.1319  165.5734 C.ar    1  UNL1        0.0964
     16 C         138.6060  139.8999  165.6328 C.ar    1  UNL1        0.0023
     17 N         140.4288  141.5580  169.3982 N.ar    1  UNL1       -0.1708
     18 C         141.6623  142.4076  169.4808 C.ar    1  UNL1        0.2272
     19 N         141.9053  142.7328  170.9248 N.ar    1  UNL1       -0.1044
     20 N         140.8221  142.0841  171.7347 N.ar    1  UNL1       -0.0222
     21 N         139.9096  141.3581  170.7912 N.ar    1  UNL1       -0.0371
     22 C         141.3799  138.9675  158.4052 C.3     1  UNL1        0.0769
     23 C         142.7234  139.6204  158.2681 C.3     1  UNL1        0.0433
     24 C         143.1538  140.6652  159.2547 C.ar    1  UNL1       -0.0249
     25 C         142.8566  142.1118  158.9927 C.ar    1  UNL1       -0.0043
     26 C         143.2870  143.1566  159.9793 C.ar    1  UNL1        0.0059
     27 C         144.0145  142.7546  161.2279 C.ar    1  UNL1        0.0748
     28 C         144.3116  141.3078  161.4900 C.ar    1  UNL1        0.0233
     29 C         143.8813  140.2631  160.5034 C.ar    1  UNL1       -0.0260
     30 C         144.1784  138.8163  160.7654 C.3     1  UNL1        0.0305
     31 C         145.0392  141.2137  162.7983 C.3     1  UNL1        0.2352
     32 O         145.1917  142.6022  163.3448 O.3     1  UNL1       -0.4404
     33 C         144.5584  143.5545  162.3743 C.2     1  UNL1        0.3413
     34 O         144.4824  145.0451  162.5239 O.2     1  UNL1       -0.2449
@<TRIPOS>BOND
     1    10    11    1
     2    11    12   ar
     3    12    13   ar
     4    13    17    1
     5    17    18   ar
     6    18    19   ar
     7    19    20   ar
     8    20    21   ar
     9    13    14   ar
    10    14    15   ar
    11    15    16   ar
    12    16     9    1
    13     9     1    1
    14     1     2    2
    15     1     3   am
    16     3     4    1
    17     4     5    1
    18     5     6    1
    19     6    22    1
    20    22    23    1
    21    23    24    1
    22    24    25   ar
    23    25    26   ar
    24    26    27   ar
    25    27    28   ar
    26    28    29   ar
    27    29    30    1
    28    28    31    1
    29    31    32    1
    30    32    33    1
    31    33    34    2
    32     6     7    1
    33     7     8    1
    34    16    11   ar
    35     8     3    1
    36    21    17   ar
    37    29    24   ar
    38    33    27    1
@<TRIPOS>MOLECULE
*****
 34 38 0 0 0
SMALL
GASTEIGER

@<TRIPOS>ATOM
      1 C         144.7759  140.9438  163.5826 C.2     1  UNL1        0.2302
      2 O         146.1523  141.4892  163.8236 O.2     1  UNL1       -0.2745
      3 N         143.9708  141.4294  162.4139 N.am    1  UNL1       -0.2764
      4 C         144.5420  142.4604  161.4861 C.3     1  UNL1        0.1107
      5 C         143.7368  142.9460  160.3174 C.3     1  UNL1        0.0939
      6 N         142.3604  142.4006  160.0764 N.3     1  UNL1       -0.2695
      7 C         141.7891  141.3695  161.0041 C.3     1  UNL1        0.0939
      8 C         142.5944  140.8840  162.1729 C.3     1  UNL1        0.1107
      9 C         144.2047  139.9127  164.5103 C.3     1  UNL1        0.1128
     10 C         143.7267  137.9296  166.7101 C.3     1  UNL1        0.0309
     11 C         143.2650  139.3482  166.8658 C.ar    1  UNL1       -0.0208
     12 C         142.5643  139.7754  168.1214 C.ar    1  UNL1        0.0344
     13 C         142.1026  141.1940  168.2773 C.ar    1  UNL1        0.1669
     14 N         142.3416  142.1856  167.1774 N.ar    1  UNL1       -0.2252
     15 C         143.0423  141.7584  165.9217 C.ar    1  UNL1        0.0964
     16 C         143.5040  140.3398  165.7659 C.ar    1  UNL1        0.0023
     17 N         141.4019  141.6211  169.5329 N.ar    1  UNL1       -0.1708
     18 C         140.3110  142.6460  169.6288 C.ar    1  UNL1        0.2272
     19 N         139.9040  142.7565  171.0683 N.ar    1  UNL1       -0.1044
     20 N         140.7435  141.7997  171.8621 N.ar    1  UNL1       -0.0222
     21 N         141.6692  141.0981  170.9131 N.ar    1  UNL1       -0.0371
     22 C         141.5553  142.8862  158.9077 C.3     1  UNL1        0.0769
     23 C         140.3185  143.7035  159.1367 C.3     1  UNL1        0.0433
     24 C         139.8258  143.9432  160.5331 C.ar    1  UNL1       -0.0249
     25 C         140.3141  145.1316  161.3071 C.ar    1  UNL1       -0.0043
     26 C         139.8214  145.3713  162.7034 C.ar    1  UNL1        0.0059
     27 C         138.8405  144.4225  163.3258 C.ar    1  UNL1        0.0748
     28 C         138.3521  143.2340  162.5519 C.ar    1  UNL1        0.0233
     29 C         138.8448  142.9943  161.1555 C.ar    1  UNL1       -0.0260
     30 C         138.3565  141.8057  160.3815 C.3     1  UNL1        0.0305
     31 C         137.3921  142.4773  163.4212 C.3     1  UNL1        0.2352
     32 O         137.2870  143.1982  164.7324 O.3     1  UNL1       -0.4404
     33 C         138.1822  144.4004  164.6735 C.2     1  UNL1        0.3413
     34 O         138.3837  145.4041  165.7697 O.2     1  UNL1       -0.2449
@<TRIPOS>BOND
     1    10    11    1
     2    11    12   ar
     3    12    13   ar
     4    13    17    1
     5    17    18   ar
     6    18    19   ar
     7    19    20   ar
     8    20    21   ar
     9    13    14   ar
    10    14    15   ar
    11    15    16   ar
    12    16     9    1
    13     9     1    1
    14     1     2    2
    15     1     3   am
    16     3     4    1
    17     4     5    1
    18     5     6    1
    19     6    22    1
    20    22    23    1
    21    23    24    1
    22    24    25   ar
    23    25    26   ar
    24    26    27   ar
    25    27    28   ar
    26    28    29   ar
    27    29    30    1
    28    28    31    1
    29    31    32    1
    30    32    33    1
    31    33    34    2
    32     6     7    1
    33     7     8    1
    34    16    11   ar
    35     8     3    1
    36    21    17   ar
    37    29    24   ar
    38    33    27    1
@<TRIPOS>MOLECULE
*****
 34 38 0 0 0
SMALL
GASTEIGER

@<TRIPOS>ATOM
      1 C         144.1143  139.9161  163.1838 C.2     1  UNL1        0.2302
      2 O         145.1707  140.6730  162.4347 O.2     1  UNL1       -0.2745
      3 N         142.7733  139.6790  162.5549 N.am    1  UNL1       -0.2764
      4 C         142.4886  140.1988  161.1769 C.3     1  UNL1        0.1107
      5 C         141.1476  139.9617  160.5481 C.3     1  UNL1        0.0939
      6 N         140.0912  139.2048  161.2973 N.3     1  UNL1       -0.2695
      7 C         140.3758  138.6850  162.6752 C.3     1  UNL1        0.0939
      8 C         141.7169  138.9221  163.3040 C.3     1  UNL1        0.1107
      9 C         144.3990  139.3963  164.5617 C.3     1  UNL1        0.1128
     10 C         143.7071  137.6500  166.9011 C.3     1  UNL1        0.0309
     11 C         143.3367  139.1035  166.9146 C.ar    1  UNL1       -0.0208
     12 C         142.6203  139.6839  168.0978 C.ar    1  UNL1        0.0344
     13 C         142.2498  141.1374  168.1114 C.ar    1  UNL1        0.1669
     14 N         142.5957  142.0105  166.9417 N.ar    1  UNL1       -0.2252
     15 C         143.3121  141.4301  165.7585 C.ar    1  UNL1        0.0964
     16 C         143.6826  139.9766  165.7449 C.ar    1  UNL1        0.0023
     17 N         141.5335  141.7178  169.2946 N.ar    1  UNL1       -0.1708
     18 C         140.4939  142.7983  169.2530 C.ar    1  UNL1        0.2272
     19 N         140.0489  143.0677  170.6598 N.ar    1  UNL1       -0.1044
     20 N         140.8134  142.1537  171.5710 N.ar    1  UNL1       -0.0222
     21 N         141.7309  141.3194  170.7271 N.ar    1  UNL1       -0.0371
     22 C         138.7502  138.9677  160.6684 C.3     1  UNL1        0.0769
     23 C         137.6209  139.9200  160.9287 C.3     1  UNL1        0.0433
     24 C         137.8224  141.0897  161.8460 C.ar    1  UNL1       -0.0249
     25 C         137.4706  140.9723  163.2994 C.ar    1  UNL1       -0.0043
     26 C         137.6721  142.1419  164.2167 C.ar    1  UNL1        0.0059
     27 C         138.2254  143.4289  163.6805 C.ar    1  UNL1        0.0748
     28 C         138.5773  143.5463  162.2271 C.ar    1  UNL1        0.0233
     29 C         138.3758  142.3767  161.3098 C.ar    1  UNL1       -0.0260
     30 C         138.7276  142.4941  159.8563 C.3     1  UNL1        0.0305
     31 C         139.1005  144.9315  161.9872 C.3     1  UNL1        0.2352
     32 O         139.0720  145.6701  163.2924 O.3     1  UNL1       -0.4404
     33 C         138.5312  144.7415  164.3389 C.2     1  UNL1        0.3413
     34 O         138.3313  145.0682  165.7892 O.2     1  UNL1       -0.2449
@<TRIPOS>BOND
     1    10    11    1
     2    11    12   ar
     3    12    13   ar
     4    13    17    1
     5    17    18   ar
     6    18    19   ar
     7    19    20   ar
     8    20    21   ar
     9    13    14   ar
    10    14    15   ar
    11    15    16   ar
    12    16     9    1
    13     9     1    1
    14     1     2    2
    15     1     3   am
    16     3     4    1
    17     4     5    1
    18     5     6    1
    19     6    22    1
    20    22    23    1
    21    23    24    1
    22    24    25   ar
    23    25    26   ar
    24    26    27   ar
    25    27    28   ar
    26    28    29   ar
    27    29    30    1
    28    28    31    1
    29    31    32    1
    30    32    33    1
    31    33    34    2
    32     6     7    1
    33     7     8    1
    34    16    11   ar
    35     8     3    1
    36    21    17   ar
    37    29    24   ar
    38    33    27    1
@<TRIPOS>MOLECULE
*****
 34 38 0 0 0
SMALL
GASTEIGER

@<TRIPOS>ATOM
      1 C         139.0952  140.3901  165.9441 C.2     1  UNL1        0.2302
      2 O         138.9071  139.3454  167.0039 O.2     1  UNL1       -0.2745
      3 N         140.4131  141.0939  165.8103 N.am    1  UNL1       -0.2764
      4 C         141.5429  140.7530  166.7363 C.3     1  UNL1        0.1107
      5 C         142.8607  141.4568  166.6024 C.3     1  UNL1        0.0939
      6 N         143.0488  142.5016  165.5426 N.3     1  UNL1       -0.2695
      7 C         141.9191  142.8426  164.6167 C.3     1  UNL1        0.0939
      8 C         140.6012  142.1387  164.7506 C.3     1  UNL1        0.1107
      9 C         137.9655  140.7311  165.0182 C.3     1  UNL1        0.1128
     10 C         137.5375  142.9640  163.0608 C.3     1  UNL1        0.0309
     11 C         137.8845  141.5905  162.5677 C.ar    1  UNL1       -0.0208
     12 C         138.0176  141.3335  161.0959 C.ar    1  UNL1        0.0344
     13 C         138.3647  139.9600  160.6027 C.ar    1  UNL1        0.1669
     14 N         138.5786  138.8436  161.5814 N.ar    1  UNL1       -0.2252
     15 C         138.4456  139.1007  163.0533 C.ar    1  UNL1        0.0964
     16 C         138.0985  140.4741  163.5464 C.ar    1  UNL1        0.0023
     17 N         138.4977  139.7030  159.1309 N.ar    1  UNL1       -0.1708
     18 C         139.5170  138.8161  158.4793 C.ar    1  UNL1        0.2272
     19 N         139.2840  138.8528  156.9980 N.ar    1  UNL1       -0.1044
     20 N         138.1207  139.7624  156.7340 N.ar    1  UNL1       -0.0222
     21 N         137.6349  140.2878  158.0523 N.ar    1  UNL1       -0.0371
     22 C         144.3667  143.2054  165.4088 C.3     1  UNL1        0.0769
     23 C         145.3812  142.7158  164.4184 C.3     1  UNL1        0.0433
     24 C         144.9326  142.1320  163.1114 C.ar    1  UNL1       -0.0249
     25 C         144.6480  143.0325  161.9461 C.ar    1  UNL1       -0.0043
     26 C         144.1993  142.4487  160.6393 C.ar    1  UNL1        0.0059
     27 C         144.0353  140.9645  160.4977 C.ar    1  UNL1        0.0748
     28 C         144.3199  140.0639  161.6631 C.ar    1  UNL1        0.0233
     29 C         144.7685  140.6477  162.9700 C.ar    1  UNL1       -0.0260
     30 C         145.0532  139.7472  164.1354 C.3     1  UNL1        0.0305
     31 C         144.0714  138.6501  161.2279 C.3     1  UNL1        0.2352
     32 O         143.6332  138.6769  159.7936 O.3     1  UNL1       -0.4404
     33 C         143.6109  140.1072  159.3423 C.2     1  UNL1        0.3413
     34 O         143.2309  140.5947  157.9756 O.2     1  UNL1       -0.2449
@<TRIPOS>BOND
     1    10    11    1
     2    11    12   ar
     3    12    13   ar
     4    13    17    1
     5    17    18   ar
     6    18    19   ar
     7    19    20   ar
     8    20    21   ar
     9    13    14   ar
    10    14    15   ar
    11    15    16   ar
    12    16     9    1
    13     9     1    1
    14     1     2    2
    15     1     3   am
    16     3     4    1
    17     4     5    1
    18     5     6    1
    19     6    22    1
    20    22    23    1
    21    23    24    1
    22    24    25   ar
    23    25    26   ar
    24    26    27   ar
    25    27    28   ar
    26    28    29   ar
    27    29    30    1
    28    28    31    1
    29    31    32    1
    30    32    33    1
    31    33    34    2
    32     6     7    1
    33     7     8    1
    34    16    11   ar
    35     8     3    1
    36    21    17   ar
    37    29    24   ar
    38    33    27    1
@<TRIPOS>MOLECULE
*****
 34 38 0 0 0
SMALL
GASTEIGER

@<TRIPOS>ATOM
      1 C         138.1909  143.3364  162.4690 C.2     1  UNL1        0.2302
      2 O         138.0789  144.8249  162.3214 O.2     1  UNL1       -0.2745
      3 N         138.9304  142.5342  161.4397 N.am    1  UNL1       -0.2764
      4 C         139.5581  143.2204  160.2627 C.3     1  UNL1        0.1107
      5 C         140.2976  142.4181  159.2335 C.3     1  UNL1        0.0939
      6 N         140.4096  140.9296  159.3811 N.3     1  UNL1       -0.2695
      7 C         139.7820  140.2433  160.5580 C.3     1  UNL1        0.0939
      8 C         139.0424  141.0457  161.5873 C.3     1  UNL1        0.1107
      9 C         137.5633  142.6501  163.6459 C.3     1  UNL1        0.1128
     10 C         139.4258  144.3544  165.2667 C.3     1  UNL1        0.0309
     11 C         139.3607  142.8754  165.5084 C.ar    1  UNL1       -0.0208
     12 C         140.2267  142.2486  166.5605 C.ar    1  UNL1        0.0344
     13 C         140.1616  140.7696  166.8023 C.ar    1  UNL1        0.1669
     14 N         139.2304  139.9175  165.9920 N.ar    1  UNL1       -0.2252
     15 C         138.3643  140.5444  164.9398 C.ar    1  UNL1        0.0964
     16 C         138.4294  142.0233  164.6980 C.ar    1  UNL1        0.0023
     17 N         141.0278  140.1428  167.8544 N.ar    1  UNL1       -0.1708
     18 C         140.6850  139.9983  169.3076 C.ar    1  UNL1        0.2272
     19 N         141.8341  139.3167  169.9893 N.ar    1  UNL1       -0.1044
     20 N         142.8872  139.0399  168.9575 N.ar    1  UNL1       -0.0222
     21 N         142.3888  139.5505  167.6381 N.ar    1  UNL1       -0.0371
     22 C         141.1491  140.1274  158.3518 C.3     1  UNL1        0.0769
     23 C         142.6061  139.8252  158.5412 C.3     1  UNL1        0.0433
     24 C         143.1891  139.7790  159.9226 C.ar    1  UNL1       -0.0249
     25 C         143.0539  138.5369  160.7525 C.ar    1  UNL1       -0.0043
     26 C         143.6369  138.4907  162.1338 C.ar    1  UNL1        0.0059
     27 C         144.3551  139.6866  162.6851 C.ar    1  UNL1        0.0748
     28 C         144.4903  140.9287  161.8552 C.ar    1  UNL1        0.0233
     29 C         143.9073  140.9750  160.4739 C.ar    1  UNL1       -0.0260
     30 C         144.0425  142.2171  159.6438 C.3     1  UNL1        0.0305
     31 C         145.2466  141.9439  162.6598 C.3     1  UNL1        0.2352
     32 O         145.5787  141.3291  163.9871 O.3     1  UNL1       -0.4404
     33 C         145.0278  139.9340  164.0028 C.2     1  UNL1        0.3413
     34 O         145.1313  138.9579  165.1370 O.2     1  UNL1       -0.2449
@<TRIPOS>BOND
     1    10    11    1
     2    11    12   ar
     3    12    13   ar
     4    13    17    1
     5    17    18   ar
     6    18    19   ar
     7    19    20   ar
     8    20    21   ar
     9    13    14   ar
    10    14    15   ar
    11    15    16   ar
    12    16     9    1
    13     9     1    1
    14     1     2    2
    15     1     3   am
    16     3     4    1
    17     4     5    1
    18     5     6    1
    19     6    22    1
    20    22    23    1
    21    23    24    1
    22    24    25   ar
    23    25    26   ar
    24    26    27   ar
    25    27    28   ar
    26    28    29   ar
    27    29    30    1
    28    28    31    1
    29    31    32    1
    30    32    33    1
    31    33    34    2
    32     6     7    1
    33     7     8    1
    34    16    11   ar
    35     8     3    1
    36    21    17   ar
    37    29    24   ar
    38    33    27    1
