@<TRIPOS>MOLECULE
*****
 21 22 0 0 0
SMALL
GASTEIGER

@<TRIPOS>ATOM
      1 C         139.3202  139.7560  165.9068 C.3     1  UNL1        0.0947
      2 C         139.3142  139.8713  167.4023 C.3     1  UNL1        0.0154
      3 C         138.4675  138.8337  166.7268 C.3     1  UNL1        0.0287
      4 C         138.9902  139.2605  164.5300 C.ar    1  UNL1        0.0149
      5 C         139.4206  137.9515  163.9373 C.ar    1  UNL1        0.0031
      6 C         138.8683  137.8691  162.5452 C.ar    1  UNL1        0.0072
      7 C         138.0965  139.1271  162.2774 C.ar    1  UNL1        0.0351
      8 S         138.1719  139.9871  163.5041 S.2     1  UNL1       -0.0903
      9 C         137.4864  137.7022  166.8102 C.3     1  UNL1        0.0659
     10 N         136.5179  137.6319  167.9535 N.3     1  UNL1       -0.3211
     11 H         137.0288  137.4793  168.8230 H       1  UNL1        0.1189
     12 H         135.8676  136.8610  167.8014 H       1  UNL1        0.1189
     13 N         141.7480  140.5415  165.4185 N.am    1  UNL1       -0.2730
     14 C         140.2874  140.8503  165.5650 C.2     1  UNL1        0.2293
     15 O         139.7941  142.2533  165.3697 O.2     1  UNL1       -0.2745
     16 C         142.7153  141.6359  165.0767 C.3     1  UNL1        0.0939
     17 C         143.3273  142.4637  166.1677 C.3     1  UNL1        0.0233
     18 C         142.2413  139.1386  165.6138 C.3     1  UNL1        0.1501
     19 C         142.7216  139.3877  168.1549 C.2     1  UNL1        0.0289
     20 C         143.0627  138.7934  166.8206 C.2     1  UNL1        0.1377
     21 F         144.2250  137.8540  166.6930 F       1  UNL1       -0.2071
@<TRIPOS>BOND
     1    19    20    2
     2    20    21    1
     3    20    18    1
     4    18    13    1
     5    13    16    1
     6    16    17    1
     7    13    14   am
     8    14    15    2
     9     1    14    1
    10     1     4    1
    11     4     5   ar
    12     5     6   ar
    13     6     7   ar
    14     7     8   ar
    15     1     2    1
    16     2     3    1
    17     3     9    1
    18     9    10    1
    19     3     1    1
    20     8     4   ar
    21    10    11    1
    22    10    12    1
@<TRIPOS>MOLECULE
*****
 21 22 0 0 0
SMALL
GASTEIGER

@<TRIPOS>ATOM
      1 C         142.6891  138.7506  165.0853 C.3     1  UNL1        0.0947
      2 C         141.6779  137.6458  165.0038 C.3     1  UNL1        0.0154
      3 C         142.1104  138.3600  163.7577 C.3     1  UNL1        0.0287
      4 C         143.6106  139.8527  164.6537 C.ar    1  UNL1        0.0149
      5 C         145.0453  139.6935  164.2460 C.ar    1  UNL1        0.0031
      6 C         145.5804  141.0500  163.8943 C.ar    1  UNL1        0.0072
      7 C         144.4765  142.0475  164.0847 C.ar    1  UNL1        0.0351
      8 S         143.2590  141.3076  164.5540 S.2     1  UNL1       -0.0903
      9 C         142.0260  138.5469  162.2718 C.3     1  UNL1        0.0659
     10 N         142.1633  137.3651  161.3583 N.3     1  UNL1       -0.3211
     11 H         143.1084  136.9883  161.4295 H       1  UNL1        0.1189
     12 H         141.9847  137.6559  160.3970 H       1  UNL1        0.1189
     13 N         142.0339  139.5155  167.4802 N.am    1  UNL1       -0.2730
     14 C         142.9478  138.7584  166.5628 C.2     1  UNL1        0.2293
     15 O         144.1205  138.0091  167.1229 O.2     1  UNL1       -0.2745
     16 C         142.2927  139.5232  168.9578 C.3     1  UNL1        0.0939
     17 C         142.9173  140.7245  169.6034 C.3     1  UNL1        0.0233
     18 C         140.8613  140.2647  166.9202 C.3     1  UNL1        0.1501
     19 C         138.5408  139.2977  166.2647 C.2     1  UNL1        0.0289
     20 C         139.4659  139.8660  167.2995 C.2     1  UNL1        0.1377
     21 F         138.9957  140.0357  168.7138 F       1  UNL1       -0.2071
@<TRIPOS>BOND
     1    19    20    2
     2    20    21    1
     3    20    18    1
     4    18    13    1
     5    13    16    1
     6    16    17    1
     7    13    14   am
     8    14    15    2
     9     1    14    1
    10     1     4    1
    11     4     5   ar
    12     5     6   ar
    13     6     7   ar
    14     7     8   ar
    15     1     2    1
    16     2     3    1
    17     3     9    1
    18     9    10    1
    19     3     1    1
    20     8     4   ar
    21    10    11    1
    22    10    12    1
@<TRIPOS>MOLECULE
*****
 21 22 0 0 0
SMALL
GASTEIGER

@<TRIPOS>ATOM
      1 C         139.3989  138.7462  164.3602 C.3     1  UNL1        0.0947
      2 C         139.7453  137.4272  164.9849 C.3     1  UNL1        0.0154
      3 C         138.7397  138.3265  165.6405 C.3     1  UNL1        0.0287
      4 C         138.7447  140.0804  164.1554 C.ar    1  UNL1        0.0149
      5 C         138.9016  141.2839  165.0369 C.ar    1  UNL1        0.0031
      6 C         138.0726  142.3926  164.4595 C.ar    1  UNL1        0.0072
      7 C         137.4032  141.8743  163.2212 C.ar    1  UNL1        0.0351
      8 S         137.8187  140.4453  163.0333 S.2     1  UNL1       -0.0903
      9 C         137.7785  138.6035  166.7582 C.3     1  UNL1        0.0659
     10 N         136.9696  137.4855  167.3462 N.3     1  UNL1       -0.3211
     11 H         136.3187  137.1315  166.6451 H       1  UNL1        0.1189
     12 H         136.4473  137.8306  168.1515 H       1  UNL1        0.1189
     13 N         141.6532  139.3161  163.2012 N.am    1  UNL1       -0.2730
     14 C         140.2854  138.7025  163.1509 C.2     1  UNL1        0.2293
     15 O         139.8040  138.0451  161.8915 O.2     1  UNL1       -0.2745
     16 C         142.5397  139.2723  161.9919 C.3     1  UNL1        0.0939
     17 C         143.4227  138.0837  161.7520 C.3     1  UNL1        0.0233
     18 C         142.1346  139.9734  164.4606 C.3     1  UNL1        0.1501
     19 C         142.9889  138.8016  166.6162 C.2     1  UNL1        0.0289
     20 C         143.2527  139.3572  165.2482 C.2     1  UNL1        0.1377
     21 F         144.6345  139.2968  164.6677 F       1  UNL1       -0.2071
@<TRIPOS>BOND
     1    19    20    2
     2    20    21    1
     3    20    18    1
     4    18    13    1
     5    13    16    1
     6    16    17    1
     7    13    14   am
     8    14    15    2
     9     1    14    1
    10     1     4    1
    11     4     5   ar
    12     5     6   ar
    13     6     7   ar
    14     7     8   ar
    15     1     2    1
    16     2     3    1
    17     3     9    1
    18     9    10    1
    19     3     1    1
    20     8     4   ar
    21    10    11    1
    22    10    12    1
@<TRIPOS>MOLECULE
*****
 21 22 0 0 0
SMALL
GASTEIGER

@<TRIPOS>ATOM
      1 C         141.8741  139.5498  165.7499 C.3     1  UNL1        0.0947
      2 C         143.0463  138.6555  166.0260 C.3     1  UNL1        0.0154
      3 C         141.8807  138.1412  165.2344 C.3     1  UNL1        0.0287
      4 C         140.5438  140.0104  165.2322 C.ar    1  UNL1        0.0149
      5 C         139.2178  139.8061  165.9032 C.ar    1  UNL1        0.0031
      6 C         138.1604  140.4256  165.0383 C.ar    1  UNL1        0.0072
      7 C         138.8328  141.0127  163.8328 C.ar    1  UNL1        0.0351
      8 S         140.3058  140.7561  163.9526 S.2     1  UNL1       -0.0903
      9 C         141.2115  137.0309  164.4797 C.3     1  UNL1        0.0659
     10 N         141.3222  136.9669  162.9851 N.3     1  UNL1       -0.3211
     11 H         140.8412  137.7669  162.5740 H       1  UNL1        0.1189
     12 H         140.8948  136.1038  162.6492 H       1  UNL1        0.1189
     13 N         142.0610  140.9820  167.9094 N.am    1  UNL1       -0.2730
     14 C         142.3296  140.7984  166.4451 C.2     1  UNL1        0.2293
     15 O         143.0537  141.8635  165.6761 O.2     1  UNL1       -0.2745
     16 C         142.5165  142.2307  168.6047 C.3     1  UNL1        0.0939
     17 C         143.6993  142.1871  169.5261 C.3     1  UNL1        0.0233
     18 C         141.3369  139.9170  168.6785 C.3     1  UNL1        0.1501
     19 C         139.0415  140.4324  169.7808 C.2     1  UNL1        0.0289
     20 C         140.5300  140.2831  169.8888 C.2     1  UNL1        0.1377
     21 F         141.2118  140.5000  171.2072 F       1  UNL1       -0.2071
@<TRIPOS>BOND
     1    19    20    2
     2    20    21    1
     3    20    18    1
     4    18    13    1
     5    13    16    1
     6    16    17    1
     7    13    14   am
     8    14    15    2
     9     1    14    1
    10     1     4    1
    11     4     5   ar
    12     5     6   ar
    13     6     7   ar
    14     7     8   ar
    15     1     2    1
    16     2     3    1
    17     3     9    1
    18     9    10    1
    19     3     1    1
    20     8     4   ar
    21    10    11    1
    22    10    12    1
@<TRIPOS>MOLECULE
*****
 21 22 0 0 0
SMALL
GASTEIGER

@<TRIPOS>ATOM
      1 C         142.8046  141.6033  165.5581 C.3     1  UNL1        0.0947
      2 C         143.7327  142.7596  165.7853 C.3     1  UNL1        0.0154
      3 C         144.1543  141.6215  164.9040 C.3     1  UNL1        0.0287
      4 C         142.2823  140.2955  165.0414 C.ar    1  UNL1        0.0149
      5 C         142.5105  138.9485  165.6606 C.ar    1  UNL1        0.0031
      6 C         141.8093  137.9257  164.8166 C.ar    1  UNL1        0.0072
      7 C         141.1478  138.6406  163.6759 C.ar    1  UNL1        0.0351
      8 S         141.4401  140.1053  163.8148 S.2     1  UNL1       -0.0903
      9 C         145.1770  140.9748  164.0175 C.3     1  UNL1        0.0659
     10 N         146.1710  141.8206  163.2781 N.3     1  UNL1       -0.3211
     11 H         145.6841  142.3925  162.5880 H       1  UNL1        0.1189
     12 H         146.8453  141.2183  162.8058 H       1  UNL1        0.1189
     13 N         141.5786  141.6820  167.8473 N.am    1  UNL1       -0.2730
     14 C         141.6363  142.0393  166.3917 C.2     1  UNL1        0.2293
     15 O         140.5256  142.8328  165.7695 O.2     1  UNL1       -0.2745
     16 C         140.4102  142.1181  168.6809 C.3     1  UNL1        0.0939
     17 C         140.4022  143.4817  169.3058 C.3     1  UNL1        0.0233
     18 C         142.6891  140.8886  168.4695 C.3     1  UNL1        0.1501
     19 C         144.1307  142.4569  169.9567 C.2     1  UNL1        0.0289
     20 C         143.2208  141.2725  169.8185 C.2     1  UNL1        0.1377
     21 F         142.8425  140.4720  171.0293 F       1  UNL1       -0.2071
@<TRIPOS>BOND
     1    19    20    2
     2    20    21    1
     3    20    18    1
     4    18    13    1
     5    13    16    1
     6    16    17    1
     7    13    14   am
     8    14    15    2
     9     1    14    1
    10     1     4    1
    11     4     5   ar
    12     5     6   ar
    13     6     7   ar
    14     7     8   ar
    15     1     2    1
    16     2     3    1
    17     3     9    1
    18     9    10    1
    19     3     1    1
    20     8     4   ar
    21    10    11    1
    22    10    12    1
@<TRIPOS>MOLECULE
*****
 21 22 0 0 0
SMALL
GASTEIGER

@<TRIPOS>ATOM
      1 C         140.4989  140.5888  167.6709 C.3     1  UNL1        0.0947
      2 C         139.2617  139.8699  167.2210 C.3     1  UNL1        0.0154
      3 C         139.4375  140.2270  168.6671 C.3     1  UNL1        0.0287
      4 C         141.4867  141.2634  168.5761 C.ar    1  UNL1        0.0149
      5 C         141.3874  142.6651  169.1008 C.ar    1  UNL1        0.0031
      6 C         142.5865  142.9227  169.9644 C.ar    1  UNL1        0.0072
      7 C         143.4268  141.6802  169.9735 C.ar    1  UNL1        0.0351
      8 S         142.7470  140.6546  169.1155 S.2     1  UNL1       -0.0903
      9 C         138.9262  140.2244  170.0773 C.3     1  UNL1        0.0659
     10 N         139.6990  139.5220  171.1540 N.3     1  UNL1       -0.3211
     11 H         139.7012  138.5184  170.9714 H       1  UNL1        0.1189
     12 H         139.2628  139.7020  172.0583 H       1  UNL1        0.1189
     13 N         141.0015  141.9268  165.5014 N.am    1  UNL1       -0.2730
     14 C         141.2173  140.7162  166.3604 C.2     1  UNL1        0.2293
     15 O         142.1516  139.6330  165.9088 O.2     1  UNL1       -0.2745
     16 C         141.7199  142.0542  164.1907 C.3     1  UNL1        0.0939
     17 C         142.4719  143.3110  163.8668 C.3     1  UNL1        0.0233
     18 C         140.0673  143.0100  165.9529 C.3     1  UNL1        0.1501
     19 C         138.8339  144.7677  164.4905 C.2     1  UNL1        0.0289
     20 C         138.8981  143.3973  165.0967 C.2     1  UNL1        0.1377
     21 F         137.7933  142.4140  164.8467 F       1  UNL1       -0.2071
@<TRIPOS>BOND
     1    19    20    2
     2    20    21    1
     3    20    18    1
     4    18    13    1
     5    13    16    1
     6    16    17    1
     7    13    14   am
     8    14    15    2
     9     1    14    1
    10     1     4    1
    11     4     5   ar
    12     5     6   ar
    13     6     7   ar
    14     7     8   ar
    15     1     2    1
    16     2     3    1
    17     3     9    1
    18     9    10    1
    19     3     1    1
    20     8     4   ar
    21    10    11    1
    22    10    12    1
@<TRIPOS>MOLECULE
*****
 21 22 0 0 0
SMALL
GASTEIGER

@<TRIPOS>ATOM
      1 C         139.7582  139.7087  165.9786 C.3     1  UNL1        0.0947
      2 C         139.1682  140.1407  167.2882 C.3     1  UNL1        0.0154
      3 C         138.6840  138.8854  166.6253 C.3     1  UNL1        0.0287
      4 C         140.0049  138.8922  164.7447 C.ar    1  UNL1        0.0149
      5 C         140.9655  137.7466  164.6230 C.ar    1  UNL1        0.0031
      6 C         140.8886  137.2244  163.2189 C.ar    1  UNL1        0.0072
      7 C         139.8805  138.0473  162.4729 C.ar    1  UNL1        0.0351
      8 S         139.3343  139.0781  163.4159 S.2     1  UNL1       -0.0903
      9 C         137.7842  137.6853  166.6158 C.3     1  UNL1        0.0659
     10 N         136.6886  137.5612  167.6328 N.3     1  UNL1       -0.3211
     11 H         137.0971  137.4610  168.5621 H       1  UNL1        0.1189
     12 H         136.1196  136.7415  167.4213 H       1  UNL1        0.1189
     13 N         140.2806  142.1486  165.2550 N.am    1  UNL1       -0.2730
     14 C         140.7468  140.8155  165.7605 C.2     1  UNL1        0.2293
     15 O         142.2015  140.5893  166.0480 O.2     1  UNL1       -0.2745
     16 C         141.2692  143.2555  165.0369 C.3     1  UNL1        0.0939
     17 C         141.9749  143.3819  163.7193 C.3     1  UNL1        0.0233
     18 C         138.8259  142.3749  164.9675 C.3     1  UNL1        0.1501
     19 C         137.8037  144.0311  163.2466 C.2     1  UNL1        0.0289
     20 C         138.3348  143.7491  164.6207 C.2     1  UNL1        0.1377
     21 F         138.3747  144.8413  165.6481 F       1  UNL1       -0.2071
@<TRIPOS>BOND
     1    19    20    2
     2    20    21    1
     3    20    18    1
     4    18    13    1
     5    13    16    1
     6    16    17    1
     7    13    14   am
     8    14    15    2
     9     1    14    1
    10     1     4    1
    11     4     5   ar
    12     5     6   ar
    13     6     7   ar
    14     7     8   ar
    15     1     2    1
    16     2     3    1
    17     3     9    1
    18     9    10    1
    19     3     1    1
    20     8     4   ar
    21    10    11    1
    22    10    12    1
@<TRIPOS>MOLECULE
*****
 21 22 0 0 0
SMALL
GASTEIGER

@<TRIPOS>ATOM
      1 C         140.9311  142.8639  165.7751 C.3     1  UNL1        0.0947
      2 C         139.6527  143.6316  165.9369 C.3     1  UNL1        0.0154
      3 C         140.4981  143.8320  164.7143 C.3     1  UNL1        0.0287
      4 C         142.2140  142.3733  165.1722 C.ar    1  UNL1        0.0149
      5 C         143.5580  143.0255  165.3077 C.ar    1  UNL1        0.0031
      6 C         144.5527  142.1996  164.5471 C.ar    1  UNL1        0.0072
      7 C         143.8234  141.0370  163.9415 C.ar    1  UNL1        0.0351
      8 S         142.3780  141.1444  164.3278 S.2     1  UNL1       -0.0903
      9 C         140.7364  144.5065  163.3959 C.3     1  UNL1        0.0659
     10 N         141.4864  145.8045  163.3422 N.3     1  UNL1       -0.3211
     11 H         140.9434  146.5305  163.8097 H       1  UNL1        0.1189
     12 H         141.6399  146.0684  162.3690 H       1  UNL1        0.1189
     13 N         140.0613  140.8401  167.1525 N.am    1  UNL1       -0.2730
     14 C         140.9186  142.0663  167.0454 C.2     1  UNL1        0.2293
     15 O         141.7633  142.4949  168.2085 O.2     1  UNL1       -0.2745
     16 C         140.0487  140.0425  168.4229 C.3     1  UNL1        0.0939
     17 C         139.2001  140.4850  169.5779 C.3     1  UNL1        0.0233
     18 C         139.2166  140.4115  165.9895 C.3     1  UNL1        0.1501
     19 C         139.0320  137.9587  165.1532 C.2     1  UNL1        0.0289
     20 C         138.5277  139.0792  166.0134 C.2     1  UNL1        0.1377
     21 F         137.3346  138.8676  166.8974 F       1  UNL1       -0.2071
@<TRIPOS>BOND
     1    19    20    2
     2    20    21    1
     3    20    18    1
     4    18    13    1
     5    13    16    1
     6    16    17    1
     7    13    14   am
     8    14    15    2
     9     1    14    1
    10     1     4    1
    11     4     5   ar
    12     5     6   ar
    13     6     7   ar
    14     7     8   ar
    15     1     2    1
    16     2     3    1
    17     3     9    1
    18     9    10    1
    19     3     1    1
    20     8     4   ar
    21    10    11    1
    22    10    12    1
@<TRIPOS>MOLECULE
*****
 21 22 0 0 0
SMALL
GASTEIGER

@<TRIPOS>ATOM
      1 C         142.0632  140.2715  167.6852 C.3     1  UNL1        0.0947
      2 C         142.9049  139.1238  167.2115 C.3     1  UNL1        0.0154
      3 C         142.5872  139.2689  168.6702 C.3     1  UNL1        0.0287
      4 C         141.3131  141.1807  168.6130 C.ar    1  UNL1        0.0149
      5 C         139.9158  140.9693  169.1158 C.ar    1  UNL1        0.0031
      6 C         139.5677  142.1188  170.0143 C.ar    1  UNL1        0.0072
      7 C         140.7499  143.0406  170.0669 C.ar    1  UNL1        0.0351
      8 S         141.8286  142.4608  169.2008 S.2     1  UNL1       -0.0903
      9 C         142.7064  138.7739  170.0811 C.3     1  UNL1        0.0659
     10 N         143.4797  139.5680  171.0918 N.3     1  UNL1       -0.3211
     11 H         144.4659  139.5809  170.8316 H       1  UNL1        0.1189
     12 H         143.3764  139.1399  172.0118 H       1  UNL1        0.1189
     13 N         140.7227  140.4487  165.4667 N.am    1  UNL1       -0.2730
     14 C         141.7998  140.9583  166.3780 C.2     1  UNL1        0.2293
     15 O         142.6134  142.1547  165.9820 O.2     1  UNL1       -0.2745
     16 C         140.4593  141.1356  164.1595 C.3     1  UNL1        0.0939
     17 C         139.7789  142.4722  164.1383 C.3     1  UNL1        0.0233
     18 C         139.9092  139.2524  165.8627 C.3     1  UNL1        0.1501
     19 C         137.7301  138.5795  167.1071 C.2     1  UNL1        0.0289
     20 C         138.4263  139.3817  166.0481 C.2     1  UNL1        0.1377
     21 F         137.6397  140.3133  165.1744 F       1  UNL1       -0.2071
@<TRIPOS>BOND
     1    19    20    2
     2    20    21    1
     3    20    18    1
     4    18    13    1
     5    13    16    1
     6    16    17    1
     7    13    14   am
     8    14    15    2
     9     1    14    1
    10     1     4    1
    11     4     5   ar
    12     5     6   ar
    13     6     7   ar
    14     7     8   ar
    15     1     2    1
    16     2     3    1
    17     3     9    1
    18     9    10    1
    19     3     1    1
    20     8     4   ar
    21    10    11    1
    22    10    12    1
