@<TRIPOS>MOLECULE
*****
 39 44 0 0 0
SMALL
GASTEIGER

@<TRIPOS>ATOM
      1 N         140.5364  144.5612  160.3746 N.3     1  UNL1       -0.1544
      2 C         141.5017  145.3321  161.2254 C.3     1  UNL1        0.1002
      3 C         141.6799  144.9731  162.6708 C.3     1  UNL1        0.0417
      4 C         140.8928  143.8431  163.2655 C.2     1  UNL1       -0.0333
      5 C         141.0710  143.4841  164.7110 C.2     1  UNL1        0.0109
      6 C         140.2839  142.3542  165.3057 C.ar    1  UNL1        0.0797
      7 C         139.3185  141.5833  164.4549 C.ar    1  UNL1        0.0171
      8 C         138.6858  140.5275  165.3122 C.ar    1  UNL1        0.1177
      9 N         139.2601  140.6459  166.6929 N.ar    1  UNL1       -0.1639
     10 N         140.2478  141.7748  166.6888 N.ar    1  UNL1       -0.2300
     11 C         139.1403  141.9423  163.0095 C.3     1  UNL1        0.0420
     12 C         139.9274  143.0723  162.4148 C.3     1  UNL1        0.0927
     13 C         139.7492  143.4313  160.9693 C.3     1  UNL1        0.1071
     14 C         141.0573  142.2424  167.8619 C.ar    1  UNL1        0.0829
     15 C         140.4405  143.1494  168.8851 C.ar    1  UNL1        0.0215
     16 C         141.2501  143.6169  170.0581 C.ar    1  UNL1        0.0312
     17 C         142.6764  143.1774  170.2080 C.ar    1  UNL1        0.1402
     18 F         143.4859  143.6449  171.3811 F       1  UNL1       -0.2042
     19 C         143.2931  142.2704  169.1848 C.ar    1  UNL1        0.0312
     20 C         142.4836  141.8029  168.0118 C.ar    1  UNL1        0.0215
     21 S         140.3581  144.9202  158.9291 S.O2    1  UNL1        0.0634
     22 O         139.6666  146.1896  159.3297 O.2     1  UNL1       -0.1528
     23 O         141.0497  143.6509  158.5286 O.2     1  UNL1       -0.1528
     24 C         139.4723  146.9901  155.6610 C.ar    1  UNL1        0.1401
     25 C         139.8234  145.9973  154.5928 C.ar    1  UNL1        0.0370
     26 C         140.3527  144.6455  154.9700 C.ar    1  UNL1        0.0045
     27 C         140.5310  144.2864  156.4155 C.ar    1  UNL1        0.0201
     28 C         140.1799  145.2793  157.4837 C.ar    1  UNL1        0.1252
     29 C         139.6506  146.6311  157.1065 C.ar    1  UNL1        0.0568
     30 C         139.7877  149.2783  154.4716 C.3     1  UNL1        0.2525
     31 O         138.9430  148.3420  155.2837 O.3     1  UNL1       -0.4714
     32 C         138.9621  142.3014  161.5640 C.2     1  UNL1        0.1948
     33 O         137.9559  143.0299  160.7232 O.2     1  UNL1       -0.2894
     34 C         139.0028  140.8020  161.5541 C.ar    1  UNL1        0.1162
     35 C         137.7303  140.0163  161.6701 C.ar    1  UNL1        0.0221
     36 C         137.7711  138.5169  161.6601 C.ar    1  UNL1        0.0032
     37 C         139.0843  137.8031  161.5342 C.ar    1  UNL1        0.0207
     38 C         140.3569  138.5888  161.4182 C.ar    1  UNL1        0.0989
     39 N         140.3162  140.0882  161.4281 N.ar    1  UNL1       -0.2409
@<TRIPOS>BOND
     1    30    31    1
     2    31    24    1
     3    24    25   ar
     4    25    26   ar
     5    26    27   ar
     6    27    28   ar
     7    28    21    1
     8    21    22    2
     9    21    23    2
    10    21     1    1
    11     1     2    1
    12     2     3    1
    13     3     4    1
    14     4     5    2
    15     5     6    1
    16     6     7   ar
    17     7     8   ar
    18     8     9   ar
    19     9    10   ar
    20    10    14    1
    21    14    15   ar
    22    15    16   ar
    23    16    17   ar
    24    17    18    1
    25    17    19   ar
    26    19    20   ar
    27     7    11    1
    28    11    12    1
    29    12    32    1
    30    32    33    2
    31    32    34    1
    32    34    35   ar
    33    35    36   ar
    34    36    37   ar
    35    37    38   ar
    36    38    39   ar
    37    12    13    1
    38    28    29   ar
    39    29    24   ar
    40    13     1    1
    41    12     4    1
    42    39    34   ar
    43    10     6   ar
    44    20    14   ar
@<TRIPOS>MOLECULE
*****
 39 44 0 0 0
SMALL
GASTEIGER

@<TRIPOS>ATOM
      1 N         141.8755  139.0674  164.9892 N.3     1  UNL1       -0.1544
      2 C         141.1805  137.8138  164.5473 C.3     1  UNL1        0.1002
      3 C         141.2309  137.3961  163.1076 C.3     1  UNL1        0.0417
      4 C         141.9763  138.2320  162.1097 C.2     1  UNL1       -0.0333
      5 C         142.0267  137.8143  160.6699 C.2     1  UNL1        0.0109
      6 C         142.7721  138.6502  159.6721 C.ar    1  UNL1        0.0797
      7 C         143.4671  139.9039  160.1141 C.ar    1  UNL1        0.0171
      8 C         144.1188  140.5209  158.9122 C.ar    1  UNL1        0.1177
      9 N         143.8266  139.6486  157.7274 N.ar    1  UNL1       -0.1639
     10 N         142.9943  138.4924  158.1971 N.ar    1  UNL1       -0.2300
     11 C         143.4167  140.3216  161.5539 C.3     1  UNL1        0.0420
     12 C         142.6713  139.4857  162.5517 C.3     1  UNL1        0.0927
     13 C         142.6209  139.9034  163.9914 C.3     1  UNL1        0.1071
     14 C         142.4753  137.3747  157.3419 C.ar    1  UNL1        0.0829
     15 C         141.2278  137.5675  156.5316 C.ar    1  UNL1        0.0215
     16 C         140.7088  136.4497  155.6764 C.ar    1  UNL1        0.0312
     17 C         141.4373  135.1392  155.6315 C.ar    1  UNL1        0.1402
     18 F         140.9183  134.0215  154.7763 F       1  UNL1       -0.2042
     19 C         142.6848  134.9466  156.4419 C.ar    1  UNL1        0.0312
     20 C         143.2037  136.0643  157.2970 C.ar    1  UNL1        0.0215
     21 S         141.8251  139.4852  166.4291 S.O2    1  UNL1        0.0634
     22 O         143.1769  138.8751  166.6533 O.2     1  UNL1       -0.1528
     23 O         140.4733  140.0953  166.2048 O.2     1  UNL1       -0.1528
     24 C         140.8412  141.4576  169.7293 C.ar    1  UNL1        0.1401
     25 C         141.6742  140.7383  170.7484 C.ar    1  UNL1        0.0370
     26 C         142.5575  139.6013  170.3278 C.ar    1  UNL1        0.0045
     27 C         142.6078  139.1836  168.8880 C.ar    1  UNL1        0.0201
     28 C         141.7748  139.9029  167.8688 C.ar    1  UNL1        0.1252
     29 C         140.8915  141.0399  168.2894 C.ar    1  UNL1        0.0568
     30 C         140.3992  144.0104  169.9243 C.3     1  UNL1        0.2525
     31 O         139.9578  142.5947  170.1499 O.3     1  UNL1       -0.4714
     32 C         143.3663  140.7393  162.9936 C.2     1  UNL1        0.1948
     33 O         144.6703  140.6542  163.7302 O.2     1  UNL1       -0.2894
     34 C         142.7573  142.0781  162.6991 C.ar    1  UNL1        0.1162
     35 C         143.3980  143.3265  163.2292 C.ar    1  UNL1        0.0221
     36 C         142.7891  144.6653  162.9346 C.ar    1  UNL1        0.0032
     37 C         141.5394  144.7557  162.1099 C.ar    1  UNL1        0.0207
     38 C         140.8986  143.5073  161.5798 C.ar    1  UNL1        0.0989
     39 N         141.5076  142.1685  161.8744 N.ar    1  UNL1       -0.2409
@<TRIPOS>BOND
     1    30    31    1
     2    31    24    1
     3    24    25   ar
     4    25    26   ar
     5    26    27   ar
     6    27    28   ar
     7    28    21    1
     8    21    22    2
     9    21    23    2
    10    21     1    1
    11     1     2    1
    12     2     3    1
    13     3     4    1
    14     4     5    2
    15     5     6    1
    16     6     7   ar
    17     7     8   ar
    18     8     9   ar
    19     9    10   ar
    20    10    14    1
    21    14    15   ar
    22    15    16   ar
    23    16    17   ar
    24    17    18    1
    25    17    19   ar
    26    19    20   ar
    27     7    11    1
    28    11    12    1
    29    12    32    1
    30    32    33    2
    31    32    34    1
    32    34    35   ar
    33    35    36   ar
    34    36    37   ar
    35    37    38   ar
    36    38    39   ar
    37    12    13    1
    38    28    29   ar
    39    29    24   ar
    40    13     1    1
    41    12     4    1
    42    39    34   ar
    43    10     6   ar
    44    20    14   ar
@<TRIPOS>MOLECULE
*****
 39 44 0 0 0
SMALL
GASTEIGER

@<TRIPOS>ATOM
      1 N         141.4705  139.5457  165.2288 N.3     1  UNL1       -0.1544
      2 C         142.5214  138.6797  164.6001 C.3     1  UNL1        0.1002
      3 C         142.4352  138.3340  163.1430 C.3     1  UNL1        0.0417
      4 C         141.2980  138.8543  162.3148 C.2     1  UNL1       -0.0333
      5 C         141.2118  138.5085  160.8577 C.2     1  UNL1        0.0109
      6 C         140.0746  139.0289  160.0294 C.ar    1  UNL1        0.0797
      7 C         139.0236  139.8950  160.6582 C.ar    1  UNL1        0.0171
      8 C         138.0271  140.2584  159.5977 C.ar    1  UNL1        0.1177
      9 N         138.4621  139.6170  158.3134 N.ar    1  UNL1       -0.1639
     10 N         139.7275  138.8571  158.5802 N.ar    1  UNL1       -0.2300
     11 C         139.1098  140.2407  162.1153 C.3     1  UNL1        0.0420
     12 C         140.2470  139.7204  162.9435 C.3     1  UNL1        0.0927
     13 C         140.3333  140.0661  164.4006 C.3     1  UNL1        0.1071
     14 C         140.5088  138.0645  157.5745 C.ar    1  UNL1        0.0829
     15 C         142.0064  138.0261  157.6496 C.ar    1  UNL1        0.0215
     16 C         142.7876  137.2335  156.6438 C.ar    1  UNL1        0.0312
     17 C         142.0712  136.4794  155.5630 C.ar    1  UNL1        0.1402
     18 F         142.8525  135.6868  154.5573 F       1  UNL1       -0.2042
     19 C         140.5736  136.5179  155.4880 C.ar    1  UNL1        0.0312
     20 C         139.7924  137.3105  156.4937 C.ar    1  UNL1        0.0215
     21 S         141.5567  139.8915  166.6859 S.O2    1  UNL1        0.0634
     22 O         140.1332  139.4575  166.8731 O.2     1  UNL1       -0.1528
     23 O         142.9803  140.3256  166.4987 O.2     1  UNL1       -0.1528
     24 C         140.9686  141.7586  170.1382 C.ar    1  UNL1        0.1401
     25 C         141.8153  140.9287  171.0571 C.ar    1  UNL1        0.0370
     26 C         142.5758  139.7532  170.5190 C.ar    1  UNL1        0.0045
     27 C         142.4897  139.4074  169.0619 C.ar    1  UNL1        0.0201
     28 C         141.6429  140.2373  168.1430 C.ar    1  UNL1        0.1252
     29 C         140.8824  141.4128  168.6811 C.ar    1  UNL1        0.0568
     30 C         140.3403  144.2768  170.0209 C.3     1  UNL1        0.2525
     31 O         140.2080  142.9341  170.6764 O.3     1  UNL1       -0.4714
     32 C         139.1961  140.5864  163.5723 C.2     1  UNL1        0.1948
     33 O         138.2036  139.9891  164.5253 O.2     1  UNL1       -0.2894
     34 C         139.1376  142.0498  163.2481 C.ar    1  UNL1        0.1162
     35 C         137.9144  142.8462  163.5936 C.ar    1  UNL1        0.0221
     36 C         137.8559  144.3096  163.2694 C.ar    1  UNL1        0.0032
     37 C         139.0207  144.9766  162.5997 C.ar    1  UNL1        0.0207
     38 C         140.2440  144.1801  162.2542 C.ar    1  UNL1        0.0989
     39 N         140.3024  142.7168  162.5784 N.ar    1  UNL1       -0.2409
@<TRIPOS>BOND
     1    30    31    1
     2    31    24    1
     3    24    25   ar
     4    25    26   ar
     5    26    27   ar
     6    27    28   ar
     7    28    21    1
     8    21    22    2
     9    21    23    2
    10    21     1    1
    11     1     2    1
    12     2     3    1
    13     3     4    1
    14     4     5    2
    15     5     6    1
    16     6     7   ar
    17     7     8   ar
    18     8     9   ar
    19     9    10   ar
    20    10    14    1
    21    14    15   ar
    22    15    16   ar
    23    16    17   ar
    24    17    18    1
    25    17    19   ar
    26    19    20   ar
    27     7    11    1
    28    11    12    1
    29    12    32    1
    30    32    33    2
    31    32    34    1
    32    34    35   ar
    33    35    36   ar
    34    36    37   ar
    35    37    38   ar
    36    38    39   ar
    37    12    13    1
    38    28    29   ar
    39    29    24   ar
    40    13     1    1
    41    12     4    1
    42    39    34   ar
    43    10     6   ar
    44    20    14   ar
@<TRIPOS>MOLECULE
*****
 39 44 0 0 0
SMALL
GASTEIGER

@<TRIPOS>ATOM
      1 N         140.0997  140.0375  164.3552 N.3     1  UNL1       -0.1544
      2 C         140.9604  138.8602  164.0046 C.3     1  UNL1        0.1002
      3 C         141.0209  138.3708  162.5880 C.3     1  UNL1        0.0417
      4 C         140.2207  139.0588  161.5220 C.2     1  UNL1       -0.0333
      5 C         140.2812  138.5693  160.1053 C.2     1  UNL1        0.0109
      6 C         139.4809  139.2573  159.0393 C.ar    1  UNL1        0.0797
      7 C         138.6202  140.4347  159.3900 C.ar    1  UNL1        0.0171
      8 C         137.9480  140.9075  158.1352 C.ar    1  UNL1        0.1177
      9 N         138.3933  140.0224  157.0090 N.ar    1  UNL1       -0.1639
     10 N         139.3407  139.0025  157.5678 N.ar    1  UNL1       -0.2300
     11 C         138.5597  140.9241  160.8066 C.3     1  UNL1        0.0420
     12 C         139.3599  140.2361  161.8726 C.3     1  UNL1        0.0927
     13 C         139.2994  140.7255  163.2892 C.3     1  UNL1        0.1071
     14 C         140.0274  137.9182  156.7914 C.ar    1  UNL1        0.0829
     15 C         139.2875  137.1849  155.7121 C.ar    1  UNL1        0.0215
     16 C         139.9743  136.1006  154.9358 C.ar    1  UNL1        0.0312
     17 C         141.4008  135.7495  155.2387 C.ar    1  UNL1        0.1402
     18 F         142.0875  134.6652  154.4624 F       1  UNL1       -0.2042
     19 C         142.1406  136.4829  156.3181 C.ar    1  UNL1        0.0312
     20 C         141.4539  137.5672  157.0944 C.ar    1  UNL1        0.0215
     21 S         140.0392  140.5270  165.7718 S.O2    1  UNL1        0.0634
     22 O         141.5144  140.7963  165.7418 O.2     1  UNL1       -0.1528
     23 O         138.5639  140.2576  165.8019 O.2     1  UNL1       -0.1528
     24 C         139.3194  140.6394  169.6731 C.ar    1  UNL1        0.1401
     25 C         139.8578  141.9953  170.0217 C.ar    1  UNL1        0.0370
     26 C         140.4566  142.8618  168.9537 C.ar    1  UNL1        0.0045
     27 C         140.5171  142.3724  167.5371 C.ar    1  UNL1        0.0201
     28 C         139.9787  141.0164  167.1884 C.ar    1  UNL1        0.1252
     29 C         139.3799  140.1499  168.2564 C.ar    1  UNL1        0.0568
     30 C         137.2749  139.3804  170.6654 C.3     1  UNL1        0.2525
     31 O         138.7206  139.7729  170.7410 O.3     1  UNL1       -0.4714
     32 C         138.4992  141.4134  162.2232 C.2     1  UNL1        0.1948
     33 O         137.1135  141.1974  162.7556 O.2     1  UNL1       -0.2894
     34 C         139.0241  142.8068  162.0415 C.ar    1  UNL1        0.1162
     35 C         140.0754  143.0834  161.0081 C.ar    1  UNL1        0.0221
     36 C         140.6003  144.4768  160.8264 C.ar    1  UNL1        0.0032
     37 C         140.0738  145.5936  161.6781 C.ar    1  UNL1        0.0207
     38 C         139.0223  145.3170  162.7116 C.ar    1  UNL1        0.0989
     39 N         138.4975  143.9236  162.8933 N.ar    1  UNL1       -0.2409
@<TRIPOS>BOND
     1    30    31    1
     2    31    24    1
     3    24    25   ar
     4    25    26   ar
     5    26    27   ar
     6    27    28   ar
     7    28    21    1
     8    21    22    2
     9    21    23    2
    10    21     1    1
    11     1     2    1
    12     2     3    1
    13     3     4    1
    14     4     5    2
    15     5     6    1
    16     6     7   ar
    17     7     8   ar
    18     8     9   ar
    19     9    10   ar
    20    10    14    1
    21    14    15   ar
    22    15    16   ar
    23    16    17   ar
    24    17    18    1
    25    17    19   ar
    26    19    20   ar
    27     7    11    1
    28    11    12    1
    29    12    32    1
    30    32    33    2
    31    32    34    1
    32    34    35   ar
    33    35    36   ar
    34    36    37   ar
    35    37    38   ar
    36    38    39   ar
    37    12    13    1
    38    28    29   ar
    39    29    24   ar
    40    13     1    1
    41    12     4    1
    42    39    34   ar
    43    10     6   ar
    44    20    14   ar
@<TRIPOS>MOLECULE
*****
 39 44 0 0 0
SMALL
GASTEIGER

@<TRIPOS>ATOM
      1 N         140.5231  139.8787  164.6832 N.3     1  UNL1       -0.1544
      2 C         140.7177  138.4122  164.4355 C.3     1  UNL1        0.1002
      3 C         140.9253  137.9087  163.0379 C.3     1  UNL1        0.0417
      4 C         140.9383  138.8718  161.8880 C.2     1  UNL1       -0.0333
      5 C         141.1459  138.3683  160.4903 C.2     1  UNL1        0.0109
      6 C         141.1589  139.3313  159.3403 C.ar    1  UNL1        0.0797
      7 C         140.9643  140.7979  159.5881 C.ar    1  UNL1        0.0171
      8 C         141.0253  141.5034  158.2658 C.ar    1  UNL1        0.1177
      9 N         141.2576  140.4729  157.2008 N.ar    1  UNL1       -0.1639
     10 N         141.3402  139.1305  157.8650 N.ar    1  UNL1       -0.2300
     11 C         140.7567  141.3014  160.9857 C.3     1  UNL1        0.0420
     12 C         140.7437  140.3383  162.1356 C.3     1  UNL1        0.0927
     13 C         140.5361  140.8418  163.5333 C.3     1  UNL1        0.1071
     14 C         141.5646  137.8177  157.1749 C.ar    1  UNL1        0.0829
     15 C         140.5859  137.3341  156.1462 C.ar    1  UNL1        0.0215
     16 C         140.8104  136.0213  155.4562 C.ar    1  UNL1        0.0312
     17 C         142.0136  135.1921  155.7948 C.ar    1  UNL1        0.1402
     18 F         142.2381  133.8793  155.1047 F       1  UNL1       -0.2042
     19 C         142.9924  135.6757  156.8235 C.ar    1  UNL1        0.0312
     20 C         142.7678  136.9885  157.5135 C.ar    1  UNL1        0.0215
     21 S         140.3154  140.3822  166.0809 S.O2    1  UNL1        0.0634
     22 O         139.1047  139.5071  166.2162 O.2     1  UNL1       -0.1528
     23 O         141.5261  141.2573  165.9455 O.2     1  UNL1       -0.1528
     24 C         139.2196  140.5212  169.8927 C.ar    1  UNL1        0.1401
     25 C         139.6925  141.8927  170.2737 C.ar    1  UNL1        0.0370
     26 C         140.3730  142.7608  169.2572 C.ar    1  UNL1        0.0045
     27 C         140.5807  142.2573  167.8596 C.ar    1  UNL1        0.0201
     28 C         140.1078  140.8857  167.4785 C.ar    1  UNL1        0.1252
     29 C         139.4272  140.0177  168.4950 C.ar    1  UNL1        0.0568
     30 C         137.0985  139.2758  170.7293 C.3     1  UNL1        0.2525
     31 O         138.5390  139.6532  170.9092 O.3     1  UNL1       -0.4714
     32 C         140.5491  141.8048  162.3833 C.2     1  UNL1        0.1948
     33 O         139.1637  142.3735  162.4698 O.2     1  UNL1       -0.2894
     34 C         141.7398  142.7027  162.5446 C.ar    1  UNL1        0.1162
     35 C         141.5989  144.0141  163.2589 C.ar    1  UNL1        0.0221
     36 C         142.7896  144.9120  163.4202 C.ar    1  UNL1        0.0032
     37 C         144.1212  144.4985  162.8672 C.ar    1  UNL1        0.0207
     38 C         144.2621  143.1870  162.1528 C.ar    1  UNL1        0.0989
     39 N         143.0714  142.2891  161.9915 N.ar    1  UNL1       -0.2409
@<TRIPOS>BOND
     1    30    31    1
     2    31    24    1
     3    24    25   ar
     4    25    26   ar
     5    26    27   ar
     6    27    28   ar
     7    28    21    1
     8    21    22    2
     9    21    23    2
    10    21     1    1
    11     1     2    1
    12     2     3    1
    13     3     4    1
    14     4     5    2
    15     5     6    1
    16     6     7   ar
    17     7     8   ar
    18     8     9   ar
    19     9    10   ar
    20    10    14    1
    21    14    15   ar
    22    15    16   ar
    23    16    17   ar
    24    17    18    1
    25    17    19   ar
    26    19    20   ar
    27     7    11    1
    28    11    12    1
    29    12    32    1
    30    32    33    2
    31    32    34    1
    32    34    35   ar
    33    35    36   ar
    34    36    37   ar
    35    37    38   ar
    36    38    39   ar
    37    12    13    1
    38    28    29   ar
    39    29    24   ar
    40    13     1    1
    41    12     4    1
    42    39    34   ar
    43    10     6   ar
    44    20    14   ar
@<TRIPOS>MOLECULE
*****
 39 44 0 0 0
SMALL
GASTEIGER

@<TRIPOS>ATOM
      1 N         141.9247  139.6468  165.1032 N.3     1  UNL1       -0.1544
      2 C         141.9439  138.2023  164.6998 C.3     1  UNL1        0.1002
      3 C         141.8355  137.8265  163.2517 C.3     1  UNL1        0.0417
      4 C         141.7078  138.8953  162.2070 C.2     1  UNL1       -0.0333
      5 C         141.5994  138.5195  160.7588 C.2     1  UNL1        0.0109
      6 C         141.4718  139.5883  159.7142 C.ar    1  UNL1        0.0797
      7 C         141.4526  141.0329  160.1176 C.ar    1  UNL1        0.0171
      8 C         141.3170  141.8598  158.8735 C.ar    1  UNL1        0.1177
      9 N         141.2524  140.9263  157.7012 N.ar    1  UNL1       -0.1639
     10 N         141.3480  139.5224  158.2207 N.ar    1  UNL1       -0.2300
     11 C         141.5610  141.4087  161.5657 C.3     1  UNL1        0.0420
     12 C         141.6887  140.3399  162.6104 C.3     1  UNL1        0.0927
     13 C         141.7971  140.7156  164.0585 C.3     1  UNL1        0.1071
     14 C         141.3242  138.2722  157.3924 C.ar    1  UNL1        0.0829
     15 C         142.4864  137.3246  157.4309 C.ar    1  UNL1        0.0215
     16 C         142.4624  136.0743  156.6024 C.ar    1  UNL1        0.0312
     17 C         141.2763  135.7716  155.7355 C.ar    1  UNL1        0.1402
     18 F         141.2524  134.5213  154.9071 F       1  UNL1       -0.2042
     19 C         140.1141  136.7192  155.6971 C.ar    1  UNL1        0.0312
     20 C         140.1381  137.9694  156.5255 C.ar    1  UNL1        0.0215
     21 S         142.0332  140.0227  166.5513 S.O2    1  UNL1        0.0634
     22 O         141.0027  141.0939  166.3504 O.2     1  UNL1       -0.1528
     23 O         143.0637  138.9514  166.7522 O.2     1  UNL1       -0.1528
     24 C         141.9644  142.1818  169.8805 C.ar    1  UNL1        0.1401
     25 C         142.3585  141.1502  170.8956 C.ar    1  UNL1        0.0370
     26 C         142.6441  139.7427  170.4626 C.ar    1  UNL1        0.0045
     27 C         142.5357  139.3669  169.0146 C.ar    1  UNL1        0.0201
     28 C         142.1416  140.3985  167.9994 C.ar    1  UNL1        0.1252
     29 C         141.8560  141.8060  168.4324 C.ar    1  UNL1        0.0568
     30 C         140.3573  144.2202  169.9890 C.3     1  UNL1        0.2525
     31 O         141.6788  143.5893  170.3135 O.3     1  UNL1       -0.4714
     32 C         141.6695  141.7845  163.0138 C.2     1  UNL1        0.1948
     33 O         142.9447  142.4712  163.4043 O.2     1  UNL1       -0.2894
     34 C         140.3751  142.5424  163.0268 C.ar    1  UNL1        0.1162
     35 C         139.1355  141.9195  162.4566 C.ar    1  UNL1        0.0221
     36 C         137.8411  142.6775  162.4696 C.ar    1  UNL1        0.0032
     37 C         137.7864  144.0583  163.0527 C.ar    1  UNL1        0.0207
     38 C         139.0261  144.6813  163.6230 C.ar    1  UNL1        0.0989
     39 N         140.3205  143.9234  163.6100 N.ar    1  UNL1       -0.2409
@<TRIPOS>BOND
     1    30    31    1
     2    31    24    1
     3    24    25   ar
     4    25    26   ar
     5    26    27   ar
     6    27    28   ar
     7    28    21    1
     8    21    22    2
     9    21    23    2
    10    21     1    1
    11     1     2    1
    12     2     3    1
    13     3     4    1
    14     4     5    2
    15     5     6    1
    16     6     7   ar
    17     7     8   ar
    18     8     9   ar
    19     9    10   ar
    20    10    14    1
    21    14    15   ar
    22    15    16   ar
    23    16    17   ar
    24    17    18    1
    25    17    19   ar
    26    19    20   ar
    27     7    11    1
    28    11    12    1
    29    12    32    1
    30    32    33    2
    31    32    34    1
    32    34    35   ar
    33    35    36   ar
    34    36    37   ar
    35    37    38   ar
    36    38    39   ar
    37    12    13    1
    38    28    29   ar
    39    29    24   ar
    40    13     1    1
    41    12     4    1
    42    39    34   ar
    43    10     6   ar
    44    20    14   ar
@<TRIPOS>MOLECULE
*****
 39 44 0 0 0
SMALL
GASTEIGER

@<TRIPOS>ATOM
      1 N         139.5569  140.1534  164.2829 N.3     1  UNL1       -0.1544
      2 C         138.2882  140.4398  163.5356 C.3     1  UNL1        0.1002
      3 C         138.1993  140.1438  162.0679 C.3     1  UNL1        0.0417
      4 C         139.3790  139.5614  161.3474 C.2     1  UNL1       -0.0333
      5 C         139.2901  139.2654  159.8795 C.2     1  UNL1        0.0109
      6 C         140.4698  138.6831  159.1590 C.ar    1  UNL1        0.0797
      7 C         141.7385  138.3967  159.9064 C.ar    1  UNL1        0.0171
      8 C         142.7295  137.8260  158.9357 C.ar    1  UNL1        0.1177
      9 N         142.0733  137.7596  157.5885 N.ar    1  UNL1       -0.1639
     10 N         140.6767  138.2893  157.7265 N.ar    1  UNL1       -0.2300
     11 C         141.8274  138.6927  161.3742 C.3     1  UNL1        0.0420
     12 C         140.6477  139.2751  162.0947 C.3     1  UNL1        0.0927
     13 C         140.7366  139.5711  163.5625 C.3     1  UNL1        0.1071
     14 C         139.6648  138.4049  156.6254 C.ar    1  UNL1        0.0829
     15 C         139.0219  139.7284  156.3335 C.ar    1  UNL1        0.0215
     16 C         138.0099  139.8439  155.2323 C.ar    1  UNL1        0.0312
     17 C         137.6408  138.6361  154.4230 C.ar    1  UNL1        0.1402
     18 F         136.6288  138.7517  153.3219 F       1  UNL1       -0.2042
     19 C         138.2837  137.3126  154.7150 C.ar    1  UNL1        0.0312
     20 C         139.2957  137.1971  155.8161 C.ar    1  UNL1        0.0215
     21 S         139.6458  140.4494  165.7508 S.O2    1  UNL1        0.0634
     22 O         140.0960  139.0418  166.0073 O.2     1  UNL1       -0.1528
     23 O         139.1957  141.8571  165.4943 O.2     1  UNL1       -0.1528
     24 C         140.6530  142.1937  169.1703 C.ar    1  UNL1        0.1401
     25 C         139.9127  141.3372  170.1543 C.ar    1  UNL1        0.0370
     26 C         139.0834  140.1848  169.6704 C.ar    1  UNL1        0.0045
     27 C         138.9944  139.8888  168.2027 C.ar    1  UNL1        0.0201
     28 C         139.7348  140.7454  167.2186 C.ar    1  UNL1        0.1252
     29 C         140.5641  141.8978  167.7024 C.ar    1  UNL1        0.0568
     30 C         142.7492  143.0911  170.4157 C.3     1  UNL1        0.2525
     31 O         141.4823  143.3462  169.6541 O.3     1  UNL1       -0.4714
     32 C         141.9163  138.9887  162.8420 C.2     1  UNL1        0.1948
     33 O         142.0498  137.7229  163.6357 O.2     1  UNL1       -0.2894
     34 C         143.0515  139.9681  162.7955 C.ar    1  UNL1        0.1162
     35 C         143.0549  141.0644  161.7717 C.ar    1  UNL1        0.0221
     36 C         144.1901  142.0438  161.7253 C.ar    1  UNL1        0.0032
     37 C         145.3219  141.9269  162.7027 C.ar    1  UNL1        0.0207
     38 C         145.3185  140.8307  163.7266 C.ar    1  UNL1        0.0989
     39 N         144.1834  139.8513  163.7730 N.ar    1  UNL1       -0.2409
@<TRIPOS>BOND
     1    30    31    1
     2    31    24    1
     3    24    25   ar
     4    25    26   ar
     5    26    27   ar
     6    27    28   ar
     7    28    21    1
     8    21    22    2
     9    21    23    2
    10    21     1    1
    11     1     2    1
    12     2     3    1
    13     3     4    1
    14     4     5    2
    15     5     6    1
    16     6     7   ar
    17     7     8   ar
    18     8     9   ar
    19     9    10   ar
    20    10    14    1
    21    14    15   ar
    22    15    16   ar
    23    16    17   ar
    24    17    18    1
    25    17    19   ar
    26    19    20   ar
    27     7    11    1
    28    11    12    1
    29    12    32    1
    30    32    33    2
    31    32    34    1
    32    34    35   ar
    33    35    36   ar
    34    36    37   ar
    35    37    38   ar
    36    38    39   ar
    37    12    13    1
    38    28    29   ar
    39    29    24   ar
    40    13     1    1
    41    12     4    1
    42    39    34   ar
    43    10     6   ar
    44    20    14   ar
@<TRIPOS>MOLECULE
*****
 39 44 0 0 0
SMALL
GASTEIGER

@<TRIPOS>ATOM
      1 N         143.2545  141.0092  164.8988 N.3     1  UNL1       -0.1544
      2 C         144.6971  140.8990  164.5030 C.3     1  UNL1        0.1002
      3 C         145.0908  141.0234  163.0610 C.3     1  UNL1        0.0417
      4 C         144.0418  141.2579  162.0147 C.2     1  UNL1       -0.0333
      5 C         144.4355  141.3822  160.5726 C.2     1  UNL1        0.0109
      6 C         143.3866  141.6167  159.5263 C.ar    1  UNL1        0.0797
      7 C         141.9439  141.7268  159.9222 C.ar    1  UNL1        0.0171
      8 C         141.1383  141.9579  158.6781 C.ar    1  UNL1        0.1177
      9 N         142.0830  141.9905  157.5135 N.ar    1  UNL1       -0.1639
     10 N         143.4725  141.7797  158.0377 N.ar    1  UNL1       -0.2300
     11 C         141.5502  141.6025  161.3642 C.3     1  UNL1        0.0420
     12 C         142.5992  141.3680  162.4105 C.3     1  UNL1        0.0927
     13 C         142.2055  141.2436  163.8525 C.3     1  UNL1        0.1071
     14 C         144.7277  141.7390  157.2174 C.ar    1  UNL1        0.0829
     15 C         144.8275  140.8087  156.0449 C.ar    1  UNL1        0.0215
     16 C         146.0827  140.7681  155.2246 C.ar    1  UNL1        0.0312
     17 C         147.2380  141.6576  155.5767 C.ar    1  UNL1        0.1402
     18 F         148.4932  141.6169  154.7564 F       1  UNL1       -0.2042
     19 C         147.1381  142.5878  156.7493 C.ar    1  UNL1        0.0312
     20 C         145.8830  142.6285  157.5695 C.ar    1  UNL1        0.0215
     21 S         142.8608  140.8848  166.3409 S.O2    1  UNL1        0.0634
     22 O         143.1234  139.4091  166.2853 O.2     1  UNL1       -0.1528
     23 O         142.5982  142.3606  166.3965 O.2     1  UNL1       -0.1528
     24 C         141.5767  141.8374  169.9732 C.ar    1  UNL1        0.1401
     25 C         141.6797  140.5116  170.6671 C.ar    1  UNL1        0.0370
     26 C         142.1764  139.3101  169.9188 C.ar    1  UNL1        0.0045
     27 C         142.5700  139.4345  168.4768 C.ar    1  UNL1        0.0201
     28 C         142.4671  140.7604  167.7829 C.ar    1  UNL1        0.1252
     29 C         141.9704  141.9619  168.5311 C.ar    1  UNL1        0.0568
     30 C         140.4301  144.1687  169.9793 C.3     1  UNL1        0.2525
     31 O         141.0801  143.0389  170.7214 O.3     1  UNL1       -0.4714
     32 C         141.1566  141.4781  162.8062 C.2     1  UNL1        0.1948
     33 O         140.6762  142.6807  163.5634 O.2     1  UNL1       -0.2894
     34 C         140.1942  140.3857  162.4449 C.ar    1  UNL1        0.1162
     35 C         140.7055  139.0875  161.8943 C.ar    1  UNL1        0.0221
     36 C         139.7432  137.9951  161.5329 C.ar    1  UNL1        0.0032
     37 C         138.2695  138.2009  161.7222 C.ar    1  UNL1        0.0207
     38 C         137.7581  139.4992  162.2728 C.ar    1  UNL1        0.0989
     39 N         138.7205  140.5916  162.6342 N.ar    1  UNL1       -0.2409
@<TRIPOS>BOND
     1    30    31    1
     2    31    24    1
     3    24    25   ar
     4    25    26   ar
     5    26    27   ar
     6    27    28   ar
     7    28    21    1
     8    21    22    2
     9    21    23    2
    10    21     1    1
    11     1     2    1
    12     2     3    1
    13     3     4    1
    14     4     5    2
    15     5     6    1
    16     6     7   ar
    17     7     8   ar
    18     8     9   ar
    19     9    10   ar
    20    10    14    1
    21    14    15   ar
    22    15    16   ar
    23    16    17   ar
    24    17    18    1
    25    17    19   ar
    26    19    20   ar
    27     7    11    1
    28    11    12    1
    29    12    32    1
    30    32    33    2
    31    32    34    1
    32    34    35   ar
    33    35    36   ar
    34    36    37   ar
    35    37    38   ar
    36    38    39   ar
    37    12    13    1
    38    28    29   ar
    39    29    24   ar
    40    13     1    1
    41    12     4    1
    42    39    34   ar
    43    10     6   ar
    44    20    14   ar
@<TRIPOS>MOLECULE
*****
 39 44 0 0 0
SMALL
GASTEIGER

@<TRIPOS>ATOM
      1 N         143.2006  140.9046  164.9026 N.3     1  UNL1       -0.1544
      2 C         144.6401  140.8594  164.4834 C.3     1  UNL1        0.1002
      3 C         145.0017  140.9590  163.0311 C.3     1  UNL1        0.0417
      4 C         143.9238  141.1040  161.9980 C.2     1  UNL1       -0.0333
      5 C         144.2855  141.2036  160.5456 C.2     1  UNL1        0.0109
      6 C         143.2077  141.3485  159.5126 C.ar    1  UNL1        0.0797
      7 C         141.7681  141.3938  159.9319 C.ar    1  UNL1        0.0171
      8 C         140.9301  141.5420  158.6967 C.ar    1  UNL1        0.1177
      9 N         141.8516  141.5885  157.5141 N.ar    1  UNL1       -0.1639
     10 N         143.2592  141.4689  158.0183 N.ar    1  UNL1       -0.2300
     11 C         141.4065  141.2941  161.3842 C.3     1  UNL1        0.0420
     12 C         142.4843  141.1492  162.4173 C.3     1  UNL1        0.0927
     13 C         142.1227  141.0495  163.8696 C.3     1  UNL1        0.1071
     14 C         144.5005  141.4695  157.1762 C.ar    1  UNL1        0.0829
     15 C         144.6266  140.5156  156.0254 C.ar    1  UNL1        0.0215
     16 C         145.8679  140.5164  155.1833 C.ar    1  UNL1        0.0312
     17 C         146.9831  141.4708  155.4919 C.ar    1  UNL1        0.1402
     18 F         148.2244  141.4714  154.6498 F       1  UNL1       -0.2042
     19 C         146.8570  142.4247  156.6428 C.ar    1  UNL1        0.0312
     20 C         145.6157  142.4240  157.4848 C.ar    1  UNL1        0.0215
     21 S         142.8389  140.8049  166.3550 S.O2    1  UNL1        0.0634
     22 O         143.1667  139.3413  166.3362 O.2     1  UNL1       -0.1528
     23 O         142.5110  142.2685  166.3739 O.2     1  UNL1       -0.1528
     24 C         141.6061  141.8123  169.9903 C.ar    1  UNL1        0.1401
     25 C         141.7539  140.5057  170.7120 C.ar    1  UNL1        0.0370
     26 C         142.2634  139.2988  169.9813 C.ar    1  UNL1        0.0045
     27 C         142.6250  139.3985  168.5290 C.ar    1  UNL1        0.0201
     28 C         142.4772  140.7052  167.8073 C.ar    1  UNL1        0.1252
     29 C         141.9678  141.9121  168.5380 C.ar    1  UNL1        0.0568
     30 C         140.4266  144.1270  169.9636 C.3     1  UNL1        0.2525
     31 O         141.0967  143.0192  170.7210 O.3     1  UNL1       -0.4714
     32 C         141.0449  141.1944  162.8365 C.2     1  UNL1        0.1948
     33 O         140.3486  139.9367  163.2650 O.2     1  UNL1       -0.2894
     34 C         140.3016  142.4973  162.8272 C.ar    1  UNL1        0.1162
     35 C         140.9943  143.7528  162.3873 C.ar    1  UNL1        0.0221
     36 C         140.2510  145.0557  162.3780 C.ar    1  UNL1        0.0032
     37 C         138.8150  145.1030  162.8087 C.ar    1  UNL1        0.0207
     38 C         138.1221  143.8473  163.2487 C.ar    1  UNL1        0.0989
     39 N         138.8654  142.5445  163.2579 N.ar    1  UNL1       -0.2409
@<TRIPOS>BOND
     1    30    31    1
     2    31    24    1
     3    24    25   ar
     4    25    26   ar
     5    26    27   ar
     6    27    28   ar
     7    28    21    1
     8    21    22    2
     9    21    23    2
    10    21     1    1
    11     1     2    1
    12     2     3    1
    13     3     4    1
    14     4     5    2
    15     5     6    1
    16     6     7   ar
    17     7     8   ar
    18     8     9   ar
    19     9    10   ar
    20    10    14    1
    21    14    15   ar
    22    15    16   ar
    23    16    17   ar
    24    17    18    1
    25    17    19   ar
    26    19    20   ar
    27     7    11    1
    28    11    12    1
    29    12    32    1
    30    32    33    2
    31    32    34    1
    32    34    35   ar
    33    35    36   ar
    34    36    37   ar
    35    37    38   ar
    36    38    39   ar
    37    12    13    1
    38    28    29   ar
    39    29    24   ar
    40    13     1    1
    41    12     4    1
    42    39    34   ar
    43    10     6   ar
    44    20    14   ar
