@<TRIPOS>MOLECULE
*****
 35 39 0 0 0
SMALL
GASTEIGER

@<TRIPOS>ATOM
      1 C         143.9488  137.7594  166.6493 C.3     1  UNL1        0.0323
      2 C         143.1417  139.0085  166.4535 C.ar    1  UNL1       -0.0060
      3 C         142.5139  139.8319  167.5388 C.ar    1  UNL1        0.0438
      4 C         141.8049  140.9857  166.8941 C.ar    1  UNL1        0.0435
      5 N         141.9943  140.8755  165.4102 N.ar    1  UNL1       -0.3137
      6 C         142.8205  139.6535  165.1378 C.ar    1  UNL1        0.0372
      7 C         143.5199  138.7021  164.2128 C.3     1  UNL1        0.0452
      8 C         143.9322  138.2394  162.8468 C.3     1  UNL1        0.0235
      9 C         143.9631  138.3711  161.3529 C.3     1  UNL1        0.0725
     10 N         143.3581  139.4601  159.9299 N.3     1  UNL1       -0.2726
     11 C         143.4290  139.5314  158.4333 C.3     1  UNL1        0.0722
     12 C         142.6653  140.7441  157.9905 C.3     1  UNL1        0.0204
     13 C         142.1224  141.4222  159.2134 C.3     1  UNL1        0.0369
     14 C         141.3368  142.5414  159.8299 C.3     1  UNL1        0.0884
     15 N         140.7642  143.2697  161.0098 N.pl3   1  UNL1       -0.3325
     16 C         140.5360  143.4401  162.4824 C.ar    1  UNL1        0.0505
     17 C         140.7043  143.0137  163.9107 C.ar    1  UNL1        0.0319
     18 C         141.2306  142.0882  164.9672 C.ar    1  UNL1        0.0646
     19 C         140.4076  143.2771  165.4753 C.ar    1  UNL1        0.0177
     20 C         139.7239  144.4015  164.7553 C.ar    1  UNL1        0.0072
     21 C         139.7880  144.4830  163.2589 C.ar    1  UNL1        0.0663
     22 C         142.5506  140.6286  160.4120 C.3     1  UNL1        0.0738
     23 C         141.0782  141.9877  167.7415 C.3     1  UNL1        0.0446
     24 C         141.0607  141.8359  169.2336 C.3     1  UNL1        0.0128
     25 C         140.7608  142.1188  170.6758 C.3     1  UNL1        0.0008
     26 C         140.2475  143.0880  169.0897 C.3     1  UNL1        0.0008
     27 C         141.7698  140.6820  169.8784 C.3     1  UNL1        0.0695
     28 C         142.4964  139.6800  169.0310 C.2     1  UNL1        0.1739
     29 O         143.2055  138.5261  169.6758 O.2     1  UNL1       -0.2913
     30 H         140.2922  144.0346  160.6081 H       1  UNL1        0.1468
     31 C         139.1043  145.6074  162.5390 C.2     1  UNL1        0.2439
     32 N         139.9050  146.7698  162.0313 N.am    1  UNL1       -0.3253
     33 O         137.6199  145.5693  162.3269 O.2     1  UNL1       -0.2703
     34 H         140.8793  146.7947  162.1706 H       1  UNL1        0.1453
     35 H         139.4562  147.5077  161.5588 H       1  UNL1        0.1453
@<TRIPOS>BOND
     1     1     2    1
     2     2     3   ar
     3     3     4   ar
     4     4     5   ar
     5     5     6   ar
     6     6     7    1
     7     7     8    1
     8     8     9    1
     9     9    10    1
    10    10    11    1
    11    11    12    1
    12    13    12    1
    13    13    14    1
    14    14    15    1
    15    15    16    1
    16    16    17   ar
    17    17    18   ar
    18    18    19   ar
    19    19    20   ar
    20    20    21   ar
    21    21    31    1
    22    31    32   am
    23    31    33    2
    24    13    22    1
    25     4    23    1
    26    23    24    1
    27    24    25    1
    28    24    26    1
    29    24    27    1
    30    27    28    1
    31    28    29    2
    32     6     2   ar
    33    22    10    1
    34    28     3    1
    35    18     5    1
    36    21    16   ar
    37    15    30    1
    38    32    34    1
    39    32    35    1
@<TRIPOS>MOLECULE
*****
 35 39 0 0 0
SMALL
GASTEIGER

@<TRIPOS>ATOM
      1 C         137.5399  137.9890  166.8960 C.3     1  UNL1        0.0323
      2 C         138.5446  139.0823  166.6826 C.ar    1  UNL1       -0.0060
      3 C         139.0824  140.0036  167.7371 C.ar    1  UNL1        0.0438
      4 C         140.0580  140.9369  167.0837 C.ar    1  UNL1        0.0435
      5 N         140.1232  140.5923  165.6252 N.ar    1  UNL1       -0.3137
      6 C         139.1879  139.4462  165.3773 C.ar    1  UNL1        0.0372
      7 C         138.5328  138.4360  164.4827 C.3     1  UNL1        0.0452
      8 C         138.3081  137.7933  163.1461 C.3     1  UNL1        0.0235
      9 C         138.5651  137.6652  161.6738 C.3     1  UNL1        0.0725
     10 N         139.5694  138.4114  160.2556 N.3     1  UNL1       -0.2726
     11 C         139.7791  138.2285  158.7816 C.3     1  UNL1        0.0722
     12 C         140.7804  139.2481  158.3259 C.3     1  UNL1        0.0204
     13 C         141.1895  140.0612  159.5181 C.3     1  UNL1        0.0369
     14 C         142.0085  141.1716  160.1064 C.3     1  UNL1        0.0884
     15 N         142.4616  142.0229  161.2555 N.pl3   1  UNL1       -0.3325
     16 C         142.4450  142.4198  162.7019 C.ar    1  UNL1        0.0505
     17 C         141.9624  142.2715  164.1144 C.ar    1  UNL1        0.0319
     18 C         141.1246  141.6120  165.1694 C.ar    1  UNL1        0.0646
     19 C         142.0096  142.7674  165.6497 C.ar    1  UNL1        0.0177
     20 C         142.9698  143.6616  164.9227 C.ar    1  UNL1        0.0072
     21 C         143.1874  143.4879  163.4489 C.ar    1  UNL1        0.0663
     22 C         140.4411  139.5441  160.7108 C.3     1  UNL1        0.0738
     23 C         140.7609  141.9798  167.9011 C.3     1  UNL1        0.0446
     24 C         140.4883  142.0895  169.3719 C.3     1  UNL1        0.0128
     25 C         140.5634  142.5828  170.7865 C.3     1  UNL1        0.0008
     26 C         141.4900  143.1941  169.2097 C.3     1  UNL1        0.0008
     27 C         139.5126  141.1562  170.0255 C.3     1  UNL1        0.0695
     28 C         138.8097  140.1133  169.2081 C.2     1  UNL1        0.1739
     29 O         137.8340  139.1800  169.8616 O.2     1  UNL1       -0.2913
     30 H         143.1057  142.6458  160.8476 H       1  UNL1        0.1468
     31 C         144.1475  144.3822  162.7219 C.2     1  UNL1        0.2439
     32 N         144.2113  145.8431  163.0558 N.am    1  UNL1       -0.3253
     33 O         145.0438  143.8154  161.6611 O.2     1  UNL1       -0.2703
     34 H         143.6230  146.2151  163.7521 H       1  UNL1        0.1453
     35 H         144.8414  146.4301  162.5787 H       1  UNL1        0.1453
@<TRIPOS>BOND
     1     1     2    1
     2     2     3   ar
     3     3     4   ar
     4     4     5   ar
     5     5     6   ar
     6     6     7    1
     7     7     8    1
     8     8     9    1
     9     9    10    1
    10    10    11    1
    11    11    12    1
    12    13    12    1
    13    13    14    1
    14    14    15    1
    15    15    16    1
    16    16    17   ar
    17    17    18   ar
    18    18    19   ar
    19    19    20   ar
    20    20    21   ar
    21    21    31    1
    22    31    32   am
    23    31    33    2
    24    13    22    1
    25     4    23    1
    26    23    24    1
    27    24    25    1
    28    24    26    1
    29    24    27    1
    30    27    28    1
    31    28    29    2
    32     6     2   ar
    33    22    10    1
    34    28     3    1
    35    18     5    1
    36    21    16   ar
    37    15    30    1
    38    32    34    1
    39    32    35    1
@<TRIPOS>MOLECULE
*****
 35 39 0 0 0
SMALL
GASTEIGER

@<TRIPOS>ATOM
      1 C         144.8996  143.4350  166.1437 C.3     1  UNL1        0.0323
      2 C         143.6610  142.6434  165.8450 C.ar    1  UNL1       -0.0060
      3 C         142.7104  142.0778  166.8582 C.ar    1  UNL1        0.0438
      4 C         141.6174  141.3632  166.1202 C.ar    1  UNL1        0.0435
      5 N         141.8925  141.4872  164.6509 N.ar    1  UNL1       -0.3137
      6 C         143.1554  142.2784  164.4808 C.ar    1  UNL1        0.0372
      7 C         144.2175  142.9200  163.6379 C.3     1  UNL1        0.0452
      8 C         144.8352  143.2651  162.3153 C.3     1  UNL1        0.0235
      9 C         144.8671  143.2347  160.8159 C.3     1  UNL1        0.0725
     10 N         143.9255  142.5897  159.3079 N.3     1  UNL1       -0.2726
     11 C         144.0188  142.5980  157.8108 C.3     1  UNL1        0.0722
     12 C         142.8441  141.8386  157.2691 C.3     1  UNL1        0.0204
     13 C         142.0249  141.3609  158.4314 C.3     1  UNL1        0.0369
     14 C         140.8277  140.6231  158.9529 C.3     1  UNL1        0.0884
     15 N         139.9627  140.1149  160.0682 N.pl3   1  UNL1       -0.3325
     16 C         139.6281  139.9528  161.5213 C.ar    1  UNL1        0.0505
     17 C         139.9007  140.1741  162.9797 C.ar    1  UNL1        0.0319
     18 C         140.7178  140.7277  164.1091 C.ar    1  UNL1        0.0646
     19 C         139.4622  139.9492  164.5167 C.ar    1  UNL1        0.0177
     20 C         138.4072  139.2562  163.7062 C.ar    1  UNL1        0.0072
     21 C         138.4901  139.2580  162.2086 C.ar    1  UNL1        0.0663
     22 C         142.6933  141.8252  159.6914 C.3     1  UNL1        0.0738
     23 C         140.5129  140.6920  166.8815 C.3     1  UNL1        0.0446
     24 C         140.5014  140.7353  168.3808 C.3     1  UNL1        0.0128
     25 C         140.0567  140.5024  169.7943 C.3     1  UNL1        0.0008
     26 C         139.2540  139.9399  168.1337 C.3     1  UNL1        0.0008
     27 C         141.5944  141.4499  169.1188 C.3     1  UNL1        0.0695
     28 C         142.6989  142.1211  168.3576 C.2     1  UNL1        0.1739
     29 O         143.7920  142.8357  169.0956 O.2     1  UNL1       -0.2913
     30 H         139.2353  139.6403  159.6046 H       1  UNL1        0.1468
     31 C         137.4352  138.5650  161.3982 C.2     1  UNL1        0.2439
     32 N         137.0230  137.1649  161.7439 N.am    1  UNL1       -0.3253
     33 O         136.7925  139.2723  160.2419 O.2     1  UNL1       -0.2703
     34 H         137.4448  136.7007  162.5027 H       1  UNL1        0.1453
     35 H         136.3306  136.7100  161.2119 H       1  UNL1        0.1453
@<TRIPOS>BOND
     1     1     2    1
     2     2     3   ar
     3     3     4   ar
     4     4     5   ar
     5     5     6   ar
     6     6     7    1
     7     7     8    1
     8     8     9    1
     9     9    10    1
    10    10    11    1
    11    11    12    1
    12    13    12    1
    13    13    14    1
    14    14    15    1
    15    15    16    1
    16    16    17   ar
    17    17    18   ar
    18    18    19   ar
    19    19    20   ar
    20    20    21   ar
    21    21    31    1
    22    31    32   am
    23    31    33    2
    24    13    22    1
    25     4    23    1
    26    23    24    1
    27    24    25    1
    28    24    26    1
    29    24    27    1
    30    27    28    1
    31    28    29    2
    32     6     2   ar
    33    22    10    1
    34    28     3    1
    35    18     5    1
    36    21    16   ar
    37    15    30    1
    38    32    34    1
    39    32    35    1
@<TRIPOS>MOLECULE
*****
 35 39 0 0 0
SMALL
GASTEIGER

@<TRIPOS>ATOM
      1 C         144.4639  142.8535  161.2555 C.3     1  UNL1        0.0323
      2 C         143.3273  141.9761  161.6894 C.ar    1  UNL1       -0.0060
      3 C         142.4117  141.2069  160.7837 C.ar    1  UNL1        0.0438
      4 C         141.4253  140.4692  161.6396 C.ar    1  UNL1        0.0435
      5 N         141.7312  140.7824  163.0744 N.ar    1  UNL1       -0.3137
      6 C         142.9066  141.7137  163.1051 C.ar    1  UNL1        0.0372
      7 C         143.9195  142.5507  163.8287 C.3     1  UNL1        0.0452
      8 C         144.5376  143.1017  165.0794 C.3     1  UNL1        0.0235
      9 C         144.6195  143.2405  166.5708 C.3     1  UNL1        0.0725
     10 N         143.8001  142.6722  168.1778 N.3     1  UNL1       -0.2726
     11 C         143.9386  142.8553  169.6601 C.3     1  UNL1        0.0722
     12 C         142.8697  142.0431  170.3293 C.3     1  UNL1        0.0204
     13 C         142.0706  141.3580  169.2606 C.3     1  UNL1        0.0369
     14 C         140.9437  140.4475  168.8722 C.3     1  UNL1        0.0884
     15 N         140.1038  139.7326  167.8554 N.pl3   1  UNL1       -0.3325
     16 C         139.7434  139.3774  166.4434 C.ar    1  UNL1        0.0505
     17 C         139.9450  139.4632  164.9594 C.ar    1  UNL1        0.0319
     18 C         140.6623  139.9702  163.7436 C.ar    1  UNL1        0.0646
     19 C         139.4853  139.0259  163.4752 C.ar    1  UNL1        0.0177
     20 C         138.5367  138.3214  164.3992 C.ar    1  UNL1        0.0072
     21 C         138.6656  138.4971  165.8833 C.ar    1  UNL1        0.0663
     22 C         142.6456  141.7468  167.9308 C.3     1  UNL1        0.0738
     23 C         140.3760  139.6076  161.0021 C.3     1  UNL1        0.0446
     24 C         140.3130  139.4836  159.5086 C.3     1  UNL1        0.0128
     25 C         139.8520  139.0514  158.1482 C.3     1  UNL1        0.0008
     26 C         139.1665  138.5958  159.8921 C.3     1  UNL1        0.0008
     27 C         141.2995  140.2214  158.6526 C.3     1  UNL1        0.0695
     28 C         142.3488  141.0830  159.2902 C.2     1  UNL1        0.1739
     29 O         143.3353  141.8207  158.4342 O.2     1  UNL1       -0.2913
     30 H         139.4464  139.2395  168.3975 H       1  UNL1        0.1468
     31 C         137.7170  137.7927  166.8072 C.2     1  UNL1        0.2439
     32 N         137.3063  136.3780  166.5245 N.am    1  UNL1       -0.3253
     33 O         137.1790  138.5029  168.0139 O.2     1  UNL1       -0.2703
     34 H         137.6594  135.9118  165.7325 H       1  UNL1        0.1453
     35 H         136.6836  135.9156  167.1309 H       1  UNL1        0.1453
@<TRIPOS>BOND
     1     1     2    1
     2     2     3   ar
     3     3     4   ar
     4     4     5   ar
     5     5     6   ar
     6     6     7    1
     7     7     8    1
     8     8     9    1
     9     9    10    1
    10    10    11    1
    11    11    12    1
    12    13    12    1
    13    13    14    1
    14    14    15    1
    15    15    16    1
    16    16    17   ar
    17    17    18   ar
    18    18    19   ar
    19    19    20   ar
    20    20    21   ar
    21    21    31    1
    22    31    32   am
    23    31    33    2
    24    13    22    1
    25     4    23    1
    26    23    24    1
    27    24    25    1
    28    24    26    1
    29    24    27    1
    30    27    28    1
    31    28    29    2
    32     6     2   ar
    33    22    10    1
    34    28     3    1
    35    18     5    1
    36    21    16   ar
    37    15    30    1
    38    32    34    1
    39    32    35    1
@<TRIPOS>MOLECULE
*****
 35 39 0 0 0
SMALL
GASTEIGER

@<TRIPOS>ATOM
      1 C         139.2039  144.9629  166.5225 C.3     1  UNL1        0.0323
      2 C         139.9729  143.7744  166.0262 C.ar    1  UNL1       -0.0060
      3 C         140.5364  142.6724  166.8735 C.ar    1  UNL1        0.0438
      4 C         141.2251  141.6962  165.9665 C.ar    1  UNL1        0.0435
      5 N         141.0872  142.1949  164.5585 N.ar    1  UNL1       -0.3137
      6 C         140.3133  143.4793  164.5954 C.ar    1  UNL1        0.0372
      7 C         139.6775  144.6663  163.9345 C.3     1  UNL1        0.0452
      8 C         139.3255  145.4840  162.7273 C.3     1  UNL1        0.0235
      9 C         139.3379  145.7451  161.2502 C.3     1  UNL1        0.0725
     10 N         139.9499  145.0375  159.6066 N.3     1  UNL1       -0.2726
     11 C         139.9245  145.3593  158.1417 C.3     1  UNL1        0.0722
     12 C         140.6593  144.2718  157.4155 C.3     1  UNL1        0.0204
     13 C         141.1387  143.2779  158.4315 C.3     1  UNL1        0.0369
     14 C         141.8647  142.0052  158.7528 C.3     1  UNL1        0.0884
     15 N         142.3734  140.9728  159.7149 N.pl3   1  UNL1       -0.3325
     16 C         142.5483  140.4173  161.0972 C.ar    1  UNL1        0.0505
     17 C         142.3492  140.4659  162.5831 C.ar    1  UNL1        0.0319
     18 C         141.8220  141.1074  163.8323 C.ar    1  UNL1        0.0646
     19 C         142.5863  139.7939  164.0315 C.ar    1  UNL1        0.0177
     20 C         143.2532  138.8667  163.0590 C.ar    1  UNL1        0.0072
     21 C         143.2342  139.1784  161.5919 C.ar    1  UNL1        0.0663
     22 C         140.7003  143.7511  159.7857 C.3     1  UNL1        0.0738
     23 C         141.8888  140.4793  166.5398 C.3     1  UNL1        0.0446
     24 C         141.8639  140.2386  168.0201 C.3     1  UNL1        0.0128
     25 C         142.1074  139.5794  169.3453 C.3     1  UNL1        0.0008
     26 C         142.6371  139.0335  167.5733 C.3     1  UNL1        0.0008
     27 C         141.1751  141.2147  168.9271 C.3     1  UNL1        0.0695
     28 C         140.5114  142.4316  168.3538 C.2     1  UNL1        0.1739
     29 O         139.8227  143.4078  169.2609 O.2     1  UNL1       -0.2913
     30 H         142.8311  140.3189  159.1385 H       1  UNL1        0.1468
     31 C         143.9010  138.2512  160.6195 C.2     1  UNL1        0.2439
     32 N         144.7803  137.1443  161.1210 N.am    1  UNL1       -0.3253
     33 O         143.6885  138.4309  159.1455 O.2     1  UNL1       -0.2703
     34 H         144.9198  137.0263  162.0884 H       1  UNL1        0.1453
     35 H         145.2180  136.5357  160.4827 H       1  UNL1        0.1453
@<TRIPOS>BOND
     1     1     2    1
     2     2     3   ar
     3     3     4   ar
     4     4     5   ar
     5     5     6   ar
     6     6     7    1
     7     7     8    1
     8     8     9    1
     9     9    10    1
    10    10    11    1
    11    11    12    1
    12    13    12    1
    13    13    14    1
    14    14    15    1
    15    15    16    1
    16    16    17   ar
    17    17    18   ar
    18    18    19   ar
    19    19    20   ar
    20    20    21   ar
    21    21    31    1
    22    31    32   am
    23    31    33    2
    24    13    22    1
    25     4    23    1
    26    23    24    1
    27    24    25    1
    28    24    26    1
    29    24    27    1
    30    27    28    1
    31    28    29    2
    32     6     2   ar
    33    22    10    1
    34    28     3    1
    35    18     5    1
    36    21    16   ar
    37    15    30    1
    38    32    34    1
    39    32    35    1
@<TRIPOS>MOLECULE
*****
 35 39 0 0 0
SMALL
GASTEIGER

@<TRIPOS>ATOM
      1 C         141.2007  138.5435  163.8102 C.3     1  UNL1        0.0323
      2 C         140.9869  139.8465  163.0985 C.ar    1  UNL1       -0.0060
      3 C         140.4227  141.0985  163.7019 C.ar    1  UNL1        0.0438
      4 C         140.3868  142.1520  162.6348 C.ar    1  UNL1        0.0435
      5 N         140.9288  141.5510  161.3718 N.ar    1  UNL1       -0.3137
      6 C         141.2997  140.1262  161.6583 C.ar    1  UNL1        0.0372
      7 C         141.8369  138.7860  161.2517 C.3     1  UNL1        0.0452
      8 C         142.4174  137.8377  160.2450 C.3     1  UNL1        0.0235
      9 C         142.9083  137.4982  158.8688 C.3     1  UNL1        0.0725
     10 N         143.1582  138.2288  157.1423 N.3     1  UNL1       -0.2726
     11 C         143.6636  137.8224  155.7898 C.3     1  UNL1        0.0722
     12 C         143.5441  139.0056  154.8756 C.3     1  UNL1        0.0204
     13 C         142.9648  140.1432  155.6632 C.3     1  UNL1        0.0369
     14 C         142.4972  141.5671  155.7249 C.3     1  UNL1        0.0884
     15 N         141.9215  142.7457  156.4528 N.pl3   1  UNL1       -0.3325
     16 C         141.3698  143.4089  157.6799 C.ar    1  UNL1        0.0505
     17 C         140.9684  143.4047  159.1252 C.ar    1  UNL1        0.0319
     18 C         140.8093  142.7343  160.4575 C.ar    1  UNL1        0.0646
     19 C         140.3637  144.1993  160.3934 C.ar    1  UNL1        0.0177
     20 C         140.3607  145.1962  159.2726 C.ar    1  UNL1        0.0072
     21 C         140.8637  144.8011  157.9159 C.ar    1  UNL1        0.0663
     22 C         142.7263  139.6631  157.0641 C.3     1  UNL1        0.0738
     23 C         139.8652  143.5224  162.9510 C.3     1  UNL1        0.0446
     24 C         139.3795  143.8393  164.3343 C.3     1  UNL1        0.0128
     25 C         138.8130  144.6156  165.4860 C.3     1  UNL1        0.0008
     26 C         139.1469  145.1624  163.6671 C.3     1  UNL1        0.0008
     27 C         139.4154  142.7858  165.4015 C.3     1  UNL1        0.0695
     28 C         139.9370  141.4154  165.0853 C.2     1  UNL1        0.1739
     29 O         139.9729  140.3619  166.1524 O.2     1  UNL1       -0.2913
     30 H         141.8887  143.4524  155.7682 H       1  UNL1        0.1468
     31 C         140.8606  145.7979  156.7951 C.2     1  UNL1        0.2439
     32 N         139.9351  146.9774  156.8430 N.am    1  UNL1       -0.3253
     33 O         141.7831  145.6154  155.6265 O.2     1  UNL1       -0.2703
     34 H         139.3296  147.0972  157.6100 H       1  UNL1        0.1453
     35 H         139.9331  147.6317  156.1074 H       1  UNL1        0.1453
@<TRIPOS>BOND
     1     1     2    1
     2     2     3   ar
     3     3     4   ar
     4     4     5   ar
     5     5     6   ar
     6     6     7    1
     7     7     8    1
     8     8     9    1
     9     9    10    1
    10    10    11    1
    11    11    12    1
    12    13    12    1
    13    13    14    1
    14    14    15    1
    15    15    16    1
    16    16    17   ar
    17    17    18   ar
    18    18    19   ar
    19    19    20   ar
    20    20    21   ar
    21    21    31    1
    22    31    32   am
    23    31    33    2
    24    13    22    1
    25     4    23    1
    26    23    24    1
    27    24    25    1
    28    24    26    1
    29    24    27    1
    30    27    28    1
    31    28    29    2
    32     6     2   ar
    33    22    10    1
    34    28     3    1
    35    18     5    1
    36    21    16   ar
    37    15    30    1
    38    32    34    1
    39    32    35    1
@<TRIPOS>MOLECULE
*****
 35 39 0 0 0
SMALL
GASTEIGER

@<TRIPOS>ATOM
      1 C         143.7079  142.6520  168.8176 C.3     1  UNL1        0.0323
      2 C         142.5879  141.9638  168.0952 C.ar    1  UNL1       -0.0060
      3 C         141.3849  141.3324  168.7310 C.ar    1  UNL1        0.0438
      4 C         140.5277  140.7645  167.6390 C.ar    1  UNL1        0.0435
      5 N         141.2009  141.0450  166.3282 N.ar    1  UNL1       -0.3137
      6 C         142.4741  141.7861  166.6101 C.ar    1  UNL1        0.0372
      7 C         143.7382  142.4676  166.1767 C.3     1  UNL1        0.0452
      8 C         144.7035  142.9330  165.1272 C.3     1  UNL1        0.0235
      9 C         145.1490  143.0761  163.7020 C.3     1  UNL1        0.0725
     10 N         144.6516  142.6593  161.9255 N.3     1  UNL1       -0.2726
     11 C         145.1558  142.8374  160.5241 C.3     1  UNL1        0.0722
     12 C         144.1651  142.2062  159.5914 C.3     1  UNL1        0.0204
     13 C         143.0485  141.6380  160.4163 C.3     1  UNL1        0.0369
     14 C         141.7420  140.9055  160.4942 C.3     1  UNL1        0.0884
     15 N         140.5939  140.3148  161.2579 N.pl3   1  UNL1       -0.3325
     16 C         139.8674  140.0015  162.5323 C.ar    1  UNL1        0.0505
     17 C         139.7290  140.0372  164.0255 C.ar    1  UNL1        0.0319
     18 C         140.2102  140.4138  165.3953 C.ar    1  UNL1        0.0646
     19 C         138.8784  139.6570  165.3435 C.ar    1  UNL1        0.0177
     20 C         138.0782  139.1171  164.1954 C.ar    1  UNL1        0.0072
     21 C         138.5726  139.2893  162.7898 C.ar    1  UNL1        0.0663
     22 C         143.3492  141.9181  161.8589 C.3     1  UNL1        0.0738
     23 C         139.2450  140.0654  167.9792 C.3     1  UNL1        0.0446
     24 C         138.8194  139.9342  169.4115 C.3     1  UNL1        0.0128
     25 C         137.9970  139.5607  170.6091 C.3     1  UNL1        0.0008
     26 C         137.6766  139.2366  168.7353 C.3     1  UNL1        0.0008
     27 C         139.6766  140.5021  170.5036 C.3     1  UNL1        0.0695
     28 C         140.9594  141.2012  170.1634 C.2     1  UNL1        0.1739
     29 O         141.8166  141.7691  171.2555 O.2     1  UNL1       -0.2913
     30 H         140.0158  139.9346  160.5576 H       1  UNL1        0.1468
     31 C         137.7724  138.7493  161.6418 C.2     1  UNL1        0.2439
     32 N         137.3330  137.3151  161.6427 N.am    1  UNL1       -0.3253
     33 O         137.4115  139.6436  160.4929 O.2     1  UNL1       -0.2703
     34 H         137.5699  136.7282  162.3967 H       1  UNL1        0.1453
     35 H         136.8078  136.9607  160.8891 H       1  UNL1        0.1453
@<TRIPOS>BOND
     1     1     2    1
     2     2     3   ar
     3     3     4   ar
     4     4     5   ar
     5     5     6   ar
     6     6     7    1
     7     7     8    1
     8     8     9    1
     9     9    10    1
    10    10    11    1
    11    11    12    1
    12    13    12    1
    13    13    14    1
    14    14    15    1
    15    15    16    1
    16    16    17   ar
    17    17    18   ar
    18    18    19   ar
    19    19    20   ar
    20    20    21   ar
    21    21    31    1
    22    31    32   am
    23    31    33    2
    24    13    22    1
    25     4    23    1
    26    23    24    1
    27    24    25    1
    28    24    26    1
    29    24    27    1
    30    27    28    1
    31    28    29    2
    32     6     2   ar
    33    22    10    1
    34    28     3    1
    35    18     5    1
    36    21    16   ar
    37    15    30    1
    38    32    34    1
    39    32    35    1
@<TRIPOS>MOLECULE
*****
 35 39 0 0 0
SMALL
GASTEIGER

@<TRIPOS>ATOM
      1 C         140.1817  145.8824  162.1727 C.3     1  UNL1        0.0323
      2 C         140.0329  144.4500  161.7528 C.ar    1  UNL1       -0.0060
      3 C         139.5320  143.3269  162.6117 C.ar    1  UNL1        0.0438
      4 C         139.5484  142.0721  161.7901 C.ar    1  UNL1        0.0435
      5 N         140.0596  142.4197  160.4234 N.ar    1  UNL1       -0.3137
      6 C         140.3590  143.8892  160.4003 C.ar    1  UNL1        0.0372
      7 C         140.8287  145.1385  159.7155 C.3     1  UNL1        0.0452
      8 C         141.3610  145.8810  158.5259 C.3     1  UNL1        0.0235
      9 C         141.8340  145.9470  157.1039 C.3     1  UNL1        0.0725
     10 N         142.1197  144.8827  155.5669 N.3     1  UNL1       -0.2726
     11 C         142.6040  145.0197  154.1538 C.3     1  UNL1        0.0722
     12 C         142.5434  143.6663  153.5099 C.3     1  UNL1        0.0204
     13 C         142.0217  142.6929  154.5250 C.3     1  UNL1        0.0369
     14 C         141.6257  141.2928  154.8894 C.3     1  UNL1        0.0884
     15 N         141.1096  140.2671  155.8547 N.pl3   1  UNL1       -0.3325
     16 C         140.5919  139.8507  157.1995 C.ar    1  UNL1        0.0505
     17 C         140.1911  140.1392  158.6159 C.ar    1  UNL1        0.0319
     18 C         139.9990  141.0662  159.7793 C.ar    1  UNL1        0.0646
     19 C         139.6270  139.6006  160.0291 C.ar    1  UNL1        0.0177
     20 C         139.6734  138.3913  159.1428 C.ar    1  UNL1        0.0072
     21 C         140.1559  138.5163  157.7280 C.ar    1  UNL1        0.0663
     22 C         141.7598  143.4447  155.7963 C.3     1  UNL1        0.0738
     23 C         139.0959  140.7751  162.3926 C.3     1  UNL1        0.0446
     24 C         138.6269  140.7329  163.8167 C.3     1  UNL1        0.0128
     25 C         138.1000  140.1895  165.1118 C.3     1  UNL1        0.0008
     26 C         138.4603  139.2894  163.4449 C.3     1  UNL1        0.0008
     27 C         138.6104  141.9878  164.6384 C.3     1  UNL1        0.0695
     28 C         139.0630  143.2848  164.0359 C.2     1  UNL1        0.1739
     29 O         139.0465  144.5396  164.8575 O.2     1  UNL1       -0.2913
     30 H         141.1120  139.4315  155.3342 H       1  UNL1        0.1468
     31 C         140.2023  137.3071  156.8418 C.2     1  UNL1        0.2439
     32 N         138.9759  136.8798  156.0912 N.am    1  UNL1       -0.3253
     33 O         141.4752  136.5251  156.7060 O.2     1  UNL1       -0.2703
     34 H         138.1405  137.3930  156.1803 H       1  UNL1        0.1453
     35 H         139.0064  136.0861  155.5095 H       1  UNL1        0.1453
@<TRIPOS>BOND
     1     1     2    1
     2     2     3   ar
     3     3     4   ar
     4     4     5   ar
     5     5     6   ar
     6     6     7    1
     7     7     8    1
     8     8     9    1
     9     9    10    1
    10    10    11    1
    11    11    12    1
    12    13    12    1
    13    13    14    1
    14    14    15    1
    15    15    16    1
    16    16    17   ar
    17    17    18   ar
    18    18    19   ar
    19    19    20   ar
    20    20    21   ar
    21    21    31    1
    22    31    32   am
    23    31    33    2
    24    13    22    1
    25     4    23    1
    26    23    24    1
    27    24    25    1
    28    24    26    1
    29    24    27    1
    30    27    28    1
    31    28    29    2
    32     6     2   ar
    33    22    10    1
    34    28     3    1
    35    18     5    1
    36    21    16   ar
    37    15    30    1
    38    32    34    1
    39    32    35    1
@<TRIPOS>MOLECULE
*****
 35 39 0 0 0
SMALL
GASTEIGER

@<TRIPOS>ATOM
      1 C         139.8939  144.1914  164.0771 C.3     1  UNL1        0.0323
      2 C         139.8305  142.9612  163.2211 C.ar    1  UNL1       -0.0060
      3 C         139.6315  141.5568  163.7091 C.ar    1  UNL1        0.0438
      4 C         139.6329  140.6470  162.5166 C.ar    1  UNL1        0.0435
      5 N         139.8329  141.4891  161.2915 N.ar    1  UNL1       -0.3137
      6 C         139.9550  142.9193  161.7268 C.ar    1  UNL1        0.0372
      7 C         140.1423  144.3812  161.4480 C.3     1  UNL1        0.0452
      8 C         140.3520  145.5399  160.5188 C.3     1  UNL1        0.0235
      9 C         140.5360  146.1300  159.1520 C.3     1  UNL1        0.0725
     10 N         140.6428  145.6693  157.3208 N.3     1  UNL1       -0.2726
     11 C         140.8314  146.3249  155.9849 C.3     1  UNL1        0.0722
     12 C         140.8026  145.2540  154.9350 C.3     1  UNL1        0.0204
     13 C         140.5961  143.9366  155.6220 C.3     1  UNL1        0.0369
     14 C         140.4368  142.4474  155.5413 C.3     1  UNL1        0.0884
     15 N         140.2323  141.0978  156.1635 N.pl3   1  UNL1       -0.3325
     16 C         140.0295  140.1972  157.3458 C.ar    1  UNL1        0.0505
     17 C         139.8750  139.9521  158.8176 C.ar    1  UNL1        0.0319
     18 C         139.8040  140.4182  160.2415 C.ar    1  UNL1        0.0646
     19 C         139.6537  138.9079  160.0284 C.ar    1  UNL1        0.0177
     20 C         139.6670  138.0662  158.7869 C.ar    1  UNL1        0.0072
     21 C         139.8549  138.7108  157.4456 C.ar    1  UNL1        0.0663
     22 C         140.4973  144.1933  157.0966 C.3     1  UNL1        0.0738
     23 C         139.4520  139.1693  162.7003 C.3     1  UNL1        0.0446
     24 C         139.2697  138.6014  164.0765 C.3     1  UNL1        0.0128
     25 C         139.0629  137.5964  165.1707 C.3     1  UNL1        0.0008
     26 C         139.1993  137.3426  163.2640 C.3     1  UNL1        0.0008
     27 C         139.2682  139.5112  165.2692 C.3     1  UNL1        0.0695
     28 C         139.4491  140.9889  165.0855 C.2     1  UNL1        0.1739
     29 O         139.4477  141.8987  166.2781 O.2     1  UNL1       -0.2913
     30 H         140.2299  140.4821  155.3953 H       1  UNL1        0.1468
     31 C         139.8682  137.8690  156.2042 C.2     1  UNL1        0.2439
     32 N         138.8757  136.7560  156.0420 N.am    1  UNL1       -0.3253
     33 O         140.8739  138.1403  155.1249 O.2     1  UNL1       -0.2703
     34 H         138.2156  136.5780  156.7504 H       1  UNL1        0.1453
     35 H         138.8845  136.2036  155.2272 H       1  UNL1        0.1453
@<TRIPOS>BOND
     1     1     2    1
     2     2     3   ar
     3     3     4   ar
     4     4     5   ar
     5     5     6   ar
     6     6     7    1
     7     7     8    1
     8     8     9    1
     9     9    10    1
    10    10    11    1
    11    11    12    1
    12    13    12    1
    13    13    14    1
    14    14    15    1
    15    15    16    1
    16    16    17   ar
    17    17    18   ar
    18    18    19   ar
    19    19    20   ar
    20    20    21   ar
    21    21    31    1
    22    31    32   am
    23    31    33    2
    24    13    22    1
    25     4    23    1
    26    23    24    1
    27    24    25    1
    28    24    26    1
    29    24    27    1
    30    27    28    1
    31    28    29    2
    32     6     2   ar
    33    22    10    1
    34    28     3    1
    35    18     5    1
    36    21    16   ar
    37    15    30    1
    38    32    34    1
    39    32    35    1
