@<TRIPOS>MOLECULE
*****
 38 42 0 0 0
SMALL
GASTEIGER

@<TRIPOS>ATOM
      1 C         138.5533  137.8911  165.1372 C.3     1  UNL1        0.0724
      2 C         141.9540  138.6811  158.3680 C.2     1  UNL1        0.2513
      3 O         143.4479  138.5950  158.2647 O.2     1  UNL1       -0.2698
      4 N         141.2842  138.5255  159.7012 N.am    1  UNL1       -0.2759
      5 C         139.8078  138.5872  159.9586 C.3     1  UNL1        0.0951
      6 C         139.5844  138.3807  161.4275 C.3     1  UNL1        0.0388
      7 C         138.5339  138.2912  162.4944 C.3     1  UNL1        0.0739
      8 N         139.2230  138.0466  163.8041 N.3     1  UNL1       -0.2726
      9 C         140.6995  137.9850  163.5466 C.3     1  UNL1        0.0739
     10 C         140.9228  138.1914  162.0778 C.3     1  UNL1        0.0388
     11 C         141.9734  138.2809  161.0108 C.3     1  UNL1        0.0951
     12 C         141.4059  136.4293  156.4630 C.3     1  UNL1        0.0523
     13 C         140.8557  137.7970  156.1857 C.ar    1  UNL1        0.0666
     14 N         140.0315  138.0388  154.9560 N.ar    1  UNL1       -0.2282
     15 C         139.4814  139.4064  154.6788 C.ar    1  UNL1        0.1982
     16 N         139.7554  140.5323  155.6313 N.ar    1  UNL1       -0.2282
     17 C         140.5797  140.2905  156.8611 C.ar    1  UNL1        0.0666
     18 C         140.8537  141.4164  157.8135 C.3     1  UNL1        0.0523
     19 C         141.1298  138.9228  157.1383 C.ar    1  UNL1        0.0807
     20 C         138.2332  139.1025  165.9617 C.3     1  UNL1        0.0217
     21 C         139.2871  140.1407  166.2100 C.3     1  UNL1        0.0239
     22 C         140.2726  139.9571  167.3258 C.ar    1  UNL1       -0.0202
     23 C         141.6858  139.5580  167.0202 C.ar    1  UNL1       -0.0041
     24 C         142.6713  139.3744  168.1361 C.ar    1  UNL1        0.0020
     25 C         142.2435  139.5898  169.5575 C.ar    1  UNL1        0.0296
     26 C         140.8303  139.9888  169.8632 C.ar    1  UNL1        0.1398
     27 F         140.4025  140.2042  171.2847 F       1  UNL1       -0.2042
     28 C         139.8447  140.1725  168.7474 C.ar    1  UNL1        0.0254
     29 C         139.3555  141.3625  165.3425 C.3     1  UNL1        0.0070
     30 C         138.3578  141.5557  164.2391 C.3     1  UNL1        0.0195
     31 C         138.4262  142.7774  163.3716 C.3     1  UNL1        0.0954
     32 N         139.4923  143.8060  163.6074 N.3     1  UNL1       -0.1594
     33 C         140.4899  143.6127  164.7108 C.3     1  UNL1        0.0954
     34 C         140.4215  142.3910  165.5783 C.3     1  UNL1        0.0195
     35 S         139.5607  145.0277  162.7399 S.O2    1  UNL1        0.0457
     36 C         139.6292  146.2496  161.8724 C.3     1  UNL1        0.1960
     37 O         138.1016  144.8847  162.4232 O.2     1  UNL1       -0.1572
     38 O         141.0200  145.1709  163.0567 O.2     1  UNL1       -0.1572
@<TRIPOS>BOND
     1    12    13    1
     2    13    14   ar
     3    14    15   ar
     4    15    16   ar
     5    16    17   ar
     6    17    18    1
     7    17    19   ar
     8    19     2    1
     9     2     3    2
    10     2     4   am
    11     4     5    1
    12     6     5    1
    13     6     7    1
    14     7     8    1
    15     8     1    1
    16     1    20    1
    17    20    21    1
    18    21    22    1
    19    22    23   ar
    20    23    24   ar
    21    24    25   ar
    22    25    26   ar
    23    26    27    1
    24    26    28   ar
    25    21    29    1
    26    29    30    1
    27    30    31    1
    28    31    32    1
    29    32    35    1
    30    35    36    1
    31    35    37    2
    32    35    38    2
    33    32    33    1
    34    33    34    1
    35     8     9    1
    36    10     9    1
    37    10    11    1
    38    19    13   ar
    39    11     4    1
    40    10     6    1
    41    28    22   ar
    42    34    29    1
@<TRIPOS>MOLECULE
*****
 38 42 0 0 0
SMALL
GASTEIGER

@<TRIPOS>ATOM
      1 C         138.5378  137.8846  165.2230 C.3     1  UNL1        0.0724
      2 C         141.9919  138.6924  158.4830 C.2     1  UNL1        0.2513
      3 O         143.4844  138.5779  158.3866 O.2     1  UNL1       -0.2698
      4 N         141.3116  138.5334  159.8103 N.am    1  UNL1       -0.2759
      5 C         139.8352  138.6211  160.0606 C.3     1  UNL1        0.0951
      6 C         139.5995  138.4006  161.5254 C.3     1  UNL1        0.0388
      7 C         138.5414  138.3185  162.5854 C.3     1  UNL1        0.0739
      8 N         139.2180  138.0437  163.8957 N.3     1  UNL1       -0.2726
      9 C         140.6945  137.9559  163.6454 C.3     1  UNL1        0.0739
     10 C         140.9302  138.1765  162.1805 C.3     1  UNL1        0.0388
     11 C         141.9883  138.2586  161.1205 C.3     1  UNL1        0.0951
     12 C         140.9200  141.4480  157.9747 C.3     1  UNL1        0.0523
     13 C         140.6437  140.3438  156.9978 C.ar    1  UNL1        0.0666
     14 N         139.8315  140.6173  155.7668 N.ar    1  UNL1       -0.2282
     15 C         139.5551  139.5131  154.7898 C.ar    1  UNL1        0.1982
     16 N         140.0910  138.1354  155.0439 N.ar    1  UNL1       -0.2282
     17 C         140.9033  137.8619  156.2750 C.ar    1  UNL1        0.0666
     18 C         141.4392  136.4841  156.5291 C.3     1  UNL1        0.0523
     19 C         141.1796  138.9660  157.2520 C.ar    1  UNL1        0.0807
     20 C         138.2207  139.0932  166.0529 C.3     1  UNL1        0.0217
     21 C         139.2712  140.1376  166.2890 C.3     1  UNL1        0.0239
     22 C         140.2621  139.9664  167.4021 C.ar    1  UNL1       -0.0202
     23 C         141.6717  139.5557  167.0949 C.ar    1  UNL1       -0.0041
     24 C         142.6625  139.3845  168.2079 C.ar    1  UNL1        0.0020
     25 C         142.2437  139.6240  169.6282 C.ar    1  UNL1        0.0296
     26 C         140.8342  140.0347  169.9356 C.ar    1  UNL1        0.1398
     27 F         140.4155  140.2741  171.3559 F       1  UNL1       -0.2042
     28 C         139.8433  140.2059  168.8225 C.ar    1  UNL1        0.0254
     29 C         139.3309  141.3532  165.4122 C.3     1  UNL1        0.0070
     30 C         140.5213  142.2639  165.4728 C.3     1  UNL1        0.0195
     31 C         140.5810  143.4794  164.5959 C.3     1  UNL1        0.0954
     32 N         139.4503  143.7843  163.6586 N.3     1  UNL1       -0.1594
     33 C         138.2600  142.8736  163.5981 C.3     1  UNL1        0.0954
     34 C         138.2003  141.6581  164.4749 C.3     1  UNL1        0.0195
     35 S         139.5100  144.9998  162.7818 S.O2    1  UNL1        0.0457
     36 C         139.5698  146.2155  161.9049 C.3     1  UNL1        0.1960
     37 O         138.0874  144.7697  162.3657 O.2     1  UNL1       -0.1572
     38 O         140.9327  145.2301  163.1978 O.2     1  UNL1       -0.1572
@<TRIPOS>BOND
     1    12    13    1
     2    13    14   ar
     3    14    15   ar
     4    15    16   ar
     5    16    17   ar
     6    17    18    1
     7    17    19   ar
     8    19     2    1
     9     2     3    2
    10     2     4   am
    11     4     5    1
    12     6     5    1
    13     6     7    1
    14     7     8    1
    15     8     1    1
    16     1    20    1
    17    20    21    1
    18    21    22    1
    19    22    23   ar
    20    23    24   ar
    21    24    25   ar
    22    25    26   ar
    23    26    27    1
    24    26    28   ar
    25    21    29    1
    26    29    30    1
    27    30    31    1
    28    31    32    1
    29    32    35    1
    30    35    36    1
    31    35    37    2
    32    35    38    2
    33    32    33    1
    34    33    34    1
    35     8     9    1
    36    10     9    1
    37    10    11    1
    38    19    13   ar
    39    11     4    1
    40    10     6    1
    41    28    22   ar
    42    34    29    1
@<TRIPOS>MOLECULE
*****
 38 42 0 0 0
SMALL
GASTEIGER

@<TRIPOS>ATOM
      1 C         138.6140  137.9689  164.9359 C.3     1  UNL1        0.0724
      2 C         140.1250  139.3702  157.6036 C.2     1  UNL1        0.2513
      3 O         139.2226  140.2681  156.8102 O.2     1  UNL1       -0.2698
      4 N         139.8274  139.0942  159.0476 N.am    1  UNL1       -0.2759
      5 C         140.6345  138.2221  159.9631 C.3     1  UNL1        0.0951
      6 C         139.9764  138.2308  161.3109 C.3     1  UNL1        0.0388
      7 C         140.0684  137.6972  162.7098 C.3     1  UNL1        0.0739
      8 N         138.9115  138.2449  163.4920 N.3     1  UNL1       -0.2726
      9 C         138.1044  139.1170  162.5764 C.3     1  UNL1        0.0739
     10 C         138.7626  139.1083  161.2285 C.3     1  UNL1        0.0388
     11 C         138.6705  139.6419  159.8297 C.3     1  UNL1        0.0951
     12 C         139.8173  136.8820  155.9561 C.3     1  UNL1        0.0523
     13 C         141.1711  137.5042  156.1292 C.ar    1  UNL1        0.0666
     14 N         142.3711  136.8824  155.4785 N.ar    1  UNL1       -0.2282
     15 C         143.7249  137.5046  155.6516 C.ar    1  UNL1        0.1982
     16 N         143.8788  138.7487  156.4753 N.ar    1  UNL1       -0.2282
     17 C         142.6787  139.3706  157.1259 C.ar    1  UNL1        0.0666
     18 C         142.8326  140.6147  157.9497 C.3     1  UNL1        0.0523
     19 C         141.3249  138.7483  156.9529 C.ar    1  UNL1        0.0807
     20 C         138.2776  139.1000  165.8619 C.3     1  UNL1        0.0217
     21 C         139.2926  140.1689  166.1401 C.3     1  UNL1        0.0239
     22 C         140.2440  140.0185  167.2899 C.ar    1  UNL1       -0.0202
     23 C         141.6634  139.6028  167.0396 C.ar    1  UNL1       -0.0041
     24 C         142.6148  139.4524  168.1895 C.ar    1  UNL1        0.0020
     25 C         142.1468  139.7178  169.5897 C.ar    1  UNL1        0.0296
     26 C         140.7276  140.1335  169.8401 C.ar    1  UNL1        0.1398
     27 F         140.2596  140.3989  171.2403 F       1  UNL1       -0.2042
     28 C         139.7761  140.2839  168.6902 C.ar    1  UNL1        0.0254
     29 C         139.3563  141.3880  165.2685 C.3     1  UNL1        0.0070
     30 C         138.0940  141.9845  164.7200 C.3     1  UNL1        0.0195
     31 C         138.1576  143.2036  163.8484 C.3     1  UNL1        0.0954
     32 N         139.4835  143.8262  163.5253 N.3     1  UNL1       -0.1594
     33 C         140.7458  143.2296  164.0738 C.3     1  UNL1        0.0954
     34 C         140.6821  142.0105  164.9454 C.3     1  UNL1        0.0195
     35 S         139.5472  145.0453  162.6537 S.O2    1  UNL1        0.0457
     36 C         139.6110  146.2644  161.7821 C.3     1  UNL1        0.1960
     37 O         138.0623  144.9788  162.4520 O.2     1  UNL1       -0.1572
     38 O         141.0322  145.1118  162.8553 O.2     1  UNL1       -0.1572
@<TRIPOS>BOND
     1    12    13    1
     2    13    14   ar
     3    14    15   ar
     4    15    16   ar
     5    16    17   ar
     6    17    18    1
     7    17    19   ar
     8    19     2    1
     9     2     3    2
    10     2     4   am
    11     4     5    1
    12     6     5    1
    13     6     7    1
    14     7     8    1
    15     8     1    1
    16     1    20    1
    17    20    21    1
    18    21    22    1
    19    22    23   ar
    20    23    24   ar
    21    24    25   ar
    22    25    26   ar
    23    26    27    1
    24    26    28   ar
    25    21    29    1
    26    29    30    1
    27    30    31    1
    28    31    32    1
    29    32    35    1
    30    35    36    1
    31    35    37    2
    32    35    38    2
    33    32    33    1
    34    33    34    1
    35     8     9    1
    36    10     9    1
    37    10    11    1
    38    19    13   ar
    39    11     4    1
    40    10     6    1
    41    28    22   ar
    42    34    29    1
@<TRIPOS>MOLECULE
*****
 38 42 0 0 0
SMALL
GASTEIGER

@<TRIPOS>ATOM
      1 C         142.6871  138.3902  165.7849 C.3     1  UNL1        0.0724
      2 C         142.7982  138.7691  158.1786 C.2     1  UNL1        0.2513
      3 O         143.9772  139.3730  157.4749 O.2     1  UNL1       -0.2698
      4 N         142.7763  138.6945  159.6766 N.am    1  UNL1       -0.2759
      5 C         141.6722  138.1213  160.5148 C.3     1  UNL1        0.0951
      6 C         142.0683  138.2525  161.9556 C.3     1  UNL1        0.0388
      7 C         141.6307  137.9794  163.3641 C.3     1  UNL1        0.0739
      8 N         142.7090  138.4648  164.2870 N.3     1  UNL1       -0.2726
      9 C         143.8131  139.0380  163.4487 C.3     1  UNL1        0.0739
     10 C         143.4171  138.9068  162.0079 C.3     1  UNL1        0.0388
     11 C         143.8547  139.1799  160.5994 C.3     1  UNL1        0.0951
     12 C         142.9831  136.0752  156.8714 C.3     1  UNL1        0.0523
     13 C         141.7335  136.8929  156.7307 C.ar    1  UNL1        0.0666
     14 N         140.5763  136.3637  155.9364 N.ar    1  UNL1       -0.2282
     15 C         139.3267  137.1815  155.7957 C.ar    1  UNL1        0.1982
     16 N         139.2342  138.5284  156.4493 N.ar    1  UNL1       -0.2282
     17 C         140.3915  139.0576  157.2436 C.ar    1  UNL1        0.0666
     18 C         140.2990  140.4045  157.8972 C.3     1  UNL1        0.0523
     19 C         141.6411  138.2399  157.3843 C.ar    1  UNL1        0.0807
     20 C         142.9761  139.6150  166.6011 C.3     1  UNL1        0.0217
     21 C         142.0443  140.7893  166.5474 C.3     1  UNL1        0.0239
     22 C         141.2351  141.1603  167.7547 C.ar    1  UNL1       -0.0202
     23 C         140.4467  140.1108  168.4806 C.ar    1  UNL1       -0.0041
     24 C         139.6375  140.4819  169.6879 C.ar    1  UNL1        0.0020
     25 C         139.6166  141.9024  170.1692 C.ar    1  UNL1        0.0296
     26 C         140.4050  142.9519  169.4433 C.ar    1  UNL1        0.1398
     27 F         140.3842  144.3725  169.9246 F       1  UNL1       -0.2042
     28 C         141.2143  142.5809  168.2360 C.ar    1  UNL1        0.0254
     29 C         141.9217  141.5925  165.2866 C.3     1  UNL1        0.0070
     30 C         143.0227  142.5281  164.8834 C.3     1  UNL1        0.0195
     31 C         142.9001  143.3313  163.6225 C.3     1  UNL1        0.0954
     32 N         141.6767  143.1989  162.7649 N.3     1  UNL1       -0.1594
     33 C         140.5758  142.2633  163.1681 C.3     1  UNL1        0.0954
     34 C         140.6983  141.4601  164.4289 C.3     1  UNL1        0.0195
     35 S         141.5541  144.0021  161.5040 S.O2    1  UNL1        0.0457
     36 C         141.4316  144.8054  160.2431 C.3     1  UNL1        0.1960
     37 O         140.0967  143.6562  161.4252 O.2     1  UNL1       -0.1572
     38 O         143.0116  144.3481  161.5827 O.2     1  UNL1       -0.1572
@<TRIPOS>BOND
     1    12    13    1
     2    13    14   ar
     3    14    15   ar
     4    15    16   ar
     5    16    17   ar
     6    17    18    1
     7    17    19   ar
     8    19     2    1
     9     2     3    2
    10     2     4   am
    11     4     5    1
    12     6     5    1
    13     6     7    1
    14     7     8    1
    15     8     1    1
    16     1    20    1
    17    20    21    1
    18    21    22    1
    19    22    23   ar
    20    23    24   ar
    21    24    25   ar
    22    25    26   ar
    23    26    27    1
    24    26    28   ar
    25    21    29    1
    26    29    30    1
    27    30    31    1
    28    31    32    1
    29    32    35    1
    30    35    36    1
    31    35    37    2
    32    35    38    2
    33    32    33    1
    34    33    34    1
    35     8     9    1
    36    10     9    1
    37    10    11    1
    38    19    13   ar
    39    11     4    1
    40    10     6    1
    41    28    22   ar
    42    34    29    1
@<TRIPOS>MOLECULE
*****
 38 42 0 0 0
SMALL
GASTEIGER

@<TRIPOS>ATOM
      1 C         138.6705  138.1631  164.9815 C.3     1  UNL1        0.0724
      2 C         140.8365  140.1138  157.9449 C.2     1  UNL1        0.2513
      3 O         139.8332  140.1344  156.8300 O.2     1  UNL1       -0.2698
      4 N         140.4099  139.7296  159.3308 N.am    1  UNL1       -0.2759
      5 C         141.2957  139.6641  160.5395 C.3     1  UNL1        0.0951
      6 C         140.4558  139.2375  161.7069 C.3     1  UNL1        0.0388
      7 C         140.4842  138.9333  163.1755 C.3     1  UNL1        0.0739
      8 N         139.0970  138.5473  163.5958 N.3     1  UNL1       -0.2726
      9 C         138.2113  138.6129  162.3870 C.3     1  UNL1        0.0739
     10 C         139.0511  139.0394  161.2196 C.3     1  UNL1        0.0388
     11 C         139.0227  139.3436  159.7510 C.3     1  UNL1        0.0951
     12 C         141.7464  142.9556  158.2557 C.3     1  UNL1        0.0523
     13 C         142.7213  141.8983  157.8294 C.ar    1  UNL1        0.0666
     14 N         144.1511  142.2618  157.5585 N.ar    1  UNL1       -0.2282
     15 C         145.1260  141.2045  157.1322 C.ar    1  UNL1        0.1982
     16 N         144.6711  139.7836  156.9768 N.ar    1  UNL1       -0.2282
     17 C         143.2412  139.4201  157.2477 C.ar    1  UNL1        0.0666
     18 C         142.7862  137.9992  157.0923 C.3     1  UNL1        0.0523
     19 C         142.2663  140.4774  157.6740 C.ar    1  UNL1        0.0807
     20 C         138.3461  139.2266  165.9884 C.3     1  UNL1        0.0217
     21 C         139.3353  140.3182  166.2716 C.3     1  UNL1        0.0239
     22 C         140.2713  140.1980  167.4376 C.ar    1  UNL1       -0.0202
     23 C         141.6406  139.6172  167.2435 C.ar    1  UNL1       -0.0041
     24 C         142.5765  139.4970  168.4095 C.ar    1  UNL1        0.0020
     25 C         142.1432  139.9577  169.7696 C.ar    1  UNL1        0.0296
     26 C         140.7739  140.5385  169.9638 C.ar    1  UNL1        0.1398
     27 F         140.3406  140.9992  171.3239 F       1  UNL1       -0.2042
     28 C         139.8379  140.6587  168.7978 C.ar    1  UNL1        0.0254
     29 C         139.3886  141.5297  165.3889 C.3     1  UNL1        0.0070
     30 C         138.1890  141.9193  164.5768 C.3     1  UNL1        0.0195
     31 C         138.2423  143.1309  163.6941 C.3     1  UNL1        0.0954
     32 N         139.4951  143.9529  163.6234 N.3     1  UNL1       -0.1594
     33 C         140.6945  143.5632  164.4354 C.3     1  UNL1        0.0954
     34 C         140.6413  142.3517  165.3182 C.3     1  UNL1        0.0195
     35 S         139.5483  145.1644  162.7407 S.O2    1  UNL1        0.0457
     36 C         139.6015  146.3761  161.8579 C.3     1  UNL1        0.1960
     37 O         140.9966  145.3509  163.0838 O.2     1  UNL1       -0.1572
     38 O         138.1000  144.9781  162.3975 O.2     1  UNL1       -0.1572
@<TRIPOS>BOND
     1    12    13    1
     2    13    14   ar
     3    14    15   ar
     4    15    16   ar
     5    16    17   ar
     6    17    18    1
     7    17    19   ar
     8    19     2    1
     9     2     3    2
    10     2     4   am
    11     4     5    1
    12     6     5    1
    13     6     7    1
    14     7     8    1
    15     8     1    1
    16     1    20    1
    17    20    21    1
    18    21    22    1
    19    22    23   ar
    20    23    24   ar
    21    24    25   ar
    22    25    26   ar
    23    26    27    1
    24    26    28   ar
    25    21    29    1
    26    29    30    1
    27    30    31    1
    28    31    32    1
    29    32    35    1
    30    35    36    1
    31    35    37    2
    32    35    38    2
    33    32    33    1
    34    33    34    1
    35     8     9    1
    36    10     9    1
    37    10    11    1
    38    19    13   ar
    39    11     4    1
    40    10     6    1
    41    28    22   ar
    42    34    29    1
@<TRIPOS>MOLECULE
*****
 38 42 0 0 0
SMALL
GASTEIGER

@<TRIPOS>ATOM
      1 C         139.0298  145.4295  162.2376 C.3     1  UNL1        0.0724
      2 C         139.5764  139.9032  167.4502 C.2     1  UNL1        0.2513
      3 O         138.6836  138.7009  167.3651 O.2     1  UNL1       -0.2698
      4 N         139.4688  140.9915  166.4237 N.am    1  UNL1       -0.2759
      5 C         140.2899  142.2461  166.3793 C.3     1  UNL1        0.0951
      6 C         139.8497  143.0463  165.1894 C.3     1  UNL1        0.0388
      7 C         140.0851  144.3162  164.4266 C.3     1  UNL1        0.0739
      8 N         139.1374  144.3412  163.2641 N.3     1  UNL1       -0.2726
      9 C         138.3163  143.0866  163.3085 C.3     1  UNL1        0.0739
     10 C         138.7565  142.2864  164.4984 C.3     1  UNL1        0.0388
     11 C         138.5211  141.0164  165.2612 C.3     1  UNL1        0.0951
     12 C         142.4675  139.2892  166.9353 C.3     1  UNL1        0.0523
     13 C         142.0225  139.7101  168.3046 C.ar    1  UNL1        0.0666
     14 N         143.0229  139.8240  169.4163 N.ar    1  UNL1       -0.2282
     15 C         142.5780  140.2449  170.7856 C.ar    1  UNL1        0.1982
     16 N         141.1325  140.5519  171.0431 N.ar    1  UNL1       -0.2282
     17 C         140.1320  140.4380  169.9312 C.ar    1  UNL1        0.0666
     18 C         138.6865  140.7450  170.1887 C.3     1  UNL1        0.0523
     19 C         140.5770  140.0171  168.5620 C.ar    1  UNL1        0.0807
     20 C         140.2589  145.9163  161.5289 C.3     1  UNL1        0.0217
     21 C         141.0985  144.9569  160.7385 C.3     1  UNL1        0.0239
     22 C         141.1472  145.0591  159.2428 C.ar    1  UNL1       -0.0202
     23 C         140.1388  145.8978  158.5151 C.ar    1  UNL1       -0.0041
     24 C         140.1874  146.0001  157.0194 C.ar    1  UNL1        0.0020
     25 C         141.2446  145.2635  156.2514 C.ar    1  UNL1        0.0296
     26 C         142.2531  144.4248  156.9789 C.ar    1  UNL1        0.1398
     27 F         143.3102  143.6882  156.2109 F       1  UNL1       -0.2042
     28 C         142.2044  144.3225  158.4747 C.ar    1  UNL1        0.0254
     29 C         141.8895  143.8953  161.4438 C.3     1  UNL1        0.0070
     30 C         141.4417  142.4647  161.3877 C.3     1  UNL1        0.0195
     31 C         142.2327  141.4031  162.0930 C.3     1  UNL1        0.0954
     32 N         143.4713  141.7721  162.8544 N.3     1  UNL1       -0.1594
     33 C         143.9190  143.2026  162.9105 C.3     1  UNL1        0.0954
     34 C         143.1280  144.2642  162.2052 C.3     1  UNL1        0.0195
     35 S         144.2622  140.7106  163.5597 S.O2    1  UNL1        0.0457
     36 C         145.0532  139.6490  164.2651 C.3     1  UNL1        0.1960
     37 O         143.5469  139.6537  162.7715 O.2     1  UNL1       -0.1572
     38 O         144.9776  141.7674  164.3481 O.2     1  UNL1       -0.1572
@<TRIPOS>BOND
     1    12    13    1
     2    13    14   ar
     3    14    15   ar
     4    15    16   ar
     5    16    17   ar
     6    17    18    1
     7    17    19   ar
     8    19     2    1
     9     2     3    2
    10     2     4   am
    11     4     5    1
    12     6     5    1
    13     6     7    1
    14     7     8    1
    15     8     1    1
    16     1    20    1
    17    20    21    1
    18    21    22    1
    19    22    23   ar
    20    23    24   ar
    21    24    25   ar
    22    25    26   ar
    23    26    27    1
    24    26    28   ar
    25    21    29    1
    26    29    30    1
    27    30    31    1
    28    31    32    1
    29    32    35    1
    30    35    36    1
    31    35    37    2
    32    35    38    2
    33    32    33    1
    34    33    34    1
    35     8     9    1
    36    10     9    1
    37    10    11    1
    38    19    13   ar
    39    11     4    1
    40    10     6    1
    41    28    22   ar
    42    34    29    1
@<TRIPOS>MOLECULE
*****
 38 42 0 0 0
SMALL
GASTEIGER

@<TRIPOS>ATOM
      1 C         142.8732  138.3820  165.8242 C.3     1  UNL1        0.0724
      2 C         142.8655  138.8278  158.2208 C.2     1  UNL1        0.2513
      3 O         144.0226  139.4596  157.5054 O.2     1  UNL1       -0.2698
      4 N         142.8670  138.7400  159.7183 N.am    1  UNL1       -0.2759
      5 C         141.7862  138.1391  160.5673 C.3     1  UNL1        0.0951
      6 C         142.2008  138.2654  162.0033 C.3     1  UNL1        0.0388
      7 C         141.7891  137.9721  163.4156 C.3     1  UNL1        0.0739
      8 N         142.8717  138.4698  164.3269 N.3     1  UNL1       -0.2726
      9 C         143.9525  139.0706  163.4778 C.3     1  UNL1        0.0739
     10 C         143.5378  138.9443  162.0418 C.3     1  UNL1        0.0388
     11 C         143.9495  139.2376  160.6295 C.3     1  UNL1        0.0951
     12 C         140.3737  140.4665  157.8953 C.3     1  UNL1        0.0523
     13 C         140.4609  139.1031  157.2760 C.ar    1  UNL1        0.0666
     14 N         139.3024  138.5590  156.4939 N.ar    1  UNL1       -0.2282
     15 C         139.3896  137.1955  155.8747 C.ar    1  UNL1        0.1982
     16 N         140.6355  136.3762  156.0374 N.ar    1  UNL1       -0.2282
     17 C         141.7941  136.9203  156.8195 C.ar    1  UNL1        0.0666
     18 C         143.0399  136.1010  156.9823 C.3     1  UNL1        0.0523
     19 C         141.7068  138.2837  157.4388 C.ar    1  UNL1        0.0807
     20 C         142.8836  139.6348  166.6490 C.3     1  UNL1        0.0217
     21 C         141.6832  140.5341  166.6624 C.3     1  UNL1        0.0239
     22 C         141.1386  141.0387  167.9658 C.ar    1  UNL1       -0.0202
     23 C         140.7475  140.0687  169.0410 C.ar    1  UNL1       -0.0041
     24 C         140.2030  140.5732  170.3444 C.ar    1  UNL1        0.0020
     25 C         140.0495  142.0478  170.5726 C.ar    1  UNL1        0.0296
     26 C         140.4405  143.0179  169.4974 C.ar    1  UNL1        0.1398
     27 F         140.2870  144.4924  169.7256 F       1  UNL1       -0.2042
     28 C         140.9851  142.5133  168.1939 C.ar    1  UNL1        0.0254
     29 C         141.0273  140.9289  165.3724 C.3     1  UNL1        0.0070
     30 C         141.7508  141.8175  164.4044 C.3     1  UNL1        0.0195
     31 C         141.0949  142.2122  163.1145 C.3     1  UNL1        0.0954
     32 N         139.7156  141.7184  162.7925 N.3     1  UNL1       -0.1594
     33 C         138.9921  140.8298  163.7606 C.3     1  UNL1        0.0954
     34 C         139.6480  140.4350  165.0505 C.3     1  UNL1        0.0195
     35 S         139.0597  142.1131  161.5026 S.O2    1  UNL1        0.0457
     36 C         138.4037  142.5078  160.2126 C.3     1  UNL1        0.1960
     37 O         139.0490  143.5459  161.9463 O.2     1  UNL1       -0.1572
     38 O         139.0703  140.6802  161.0588 O.2     1  UNL1       -0.1572
@<TRIPOS>BOND
     1    12    13    1
     2    13    14   ar
     3    14    15   ar
     4    15    16   ar
     5    16    17   ar
     6    17    18    1
     7    17    19   ar
     8    19     2    1
     9     2     3    2
    10     2     4   am
    11     4     5    1
    12     6     5    1
    13     6     7    1
    14     7     8    1
    15     8     1    1
    16     1    20    1
    17    20    21    1
    18    21    22    1
    19    22    23   ar
    20    23    24   ar
    21    24    25   ar
    22    25    26   ar
    23    26    27    1
    24    26    28   ar
    25    21    29    1
    26    29    30    1
    27    30    31    1
    28    31    32    1
    29    32    35    1
    30    35    36    1
    31    35    37    2
    32    35    38    2
    33    32    33    1
    34    33    34    1
    35     8     9    1
    36    10     9    1
    37    10    11    1
    38    19    13   ar
    39    11     4    1
    40    10     6    1
    41    28    22   ar
    42    34    29    1
@<TRIPOS>MOLECULE
*****
 38 42 0 0 0
SMALL
GASTEIGER

@<TRIPOS>ATOM
      1 C         141.4966  138.5323  165.3858 C.3     1  UNL1        0.0724
      2 C         141.1752  138.4763  157.7763 C.2     1  UNL1        0.2513
      3 O         139.8513  138.3504  157.0825 O.2     1  UNL1       -0.2698
      4 N         141.2385  138.4874  159.2749 N.am    1  UNL1       -0.2759
      5 C         142.4829  138.6063  160.1039 C.3     1  UNL1        0.0951
      6 C         142.0820  138.5738  161.5490 C.3     1  UNL1        0.0388
      7 C         142.6033  138.6273  162.9545 C.3     1  UNL1        0.0739
      8 N         141.4333  138.5213  163.8872 N.3     1  UNL1       -0.2726
      9 C         140.1889  138.4023  163.0581 C.3     1  UNL1        0.0739
     10 C         140.5898  138.4348  161.6131 C.3     1  UNL1        0.0388
     11 C         140.0685  138.3813  160.2076 C.3     1  UNL1        0.0951
     12 C         142.2867  141.1814  157.1075 C.3     1  UNL1        0.0523
     13 C         142.9915  139.9438  156.6371 C.ar    1  UNL1        0.0666
     14 N         144.2521  140.0586  155.8323 N.ar    1  UNL1       -0.2282
     15 C         144.9570  138.8209  155.3618 C.ar    1  UNL1        0.1982
     16 N         144.4012  137.4683  155.6962 N.ar    1  UNL1       -0.2282
     17 C         143.1406  137.3535  156.5010 C.ar    1  UNL1        0.0666
     18 C         142.5849  136.0010  156.8354 C.3     1  UNL1        0.0523
     19 C         142.4357  138.5912  156.9715 C.ar    1  UNL1        0.0807
     20 C         142.1220  139.6927  166.1015 C.3     1  UNL1        0.0217
     21 C         141.3685  140.9822  166.2415 C.3     1  UNL1        0.0239
     22 C         140.7925  141.3738  167.5699 C.ar    1  UNL1       -0.0202
     23 C         140.0371  140.3671  168.3860 C.ar    1  UNL1       -0.0041
     24 C         139.4611  140.7588  169.7145 C.ar    1  UNL1        0.0020
     25 C         139.6406  142.1570  170.2269 C.ar    1  UNL1        0.0296
     26 C         140.3960  143.1637  169.4109 C.ar    1  UNL1        0.1398
     27 F         140.5754  144.5620  169.9233 F       1  UNL1       -0.2042
     28 C         140.9720  142.7722  168.0824 C.ar    1  UNL1        0.0254
     29 C         141.1909  141.8800  165.0530 C.3     1  UNL1        0.0070
     30 C         139.8202  142.1212  164.4935 C.3     1  UNL1        0.0195
     31 C         139.6426  143.0189  163.3050 C.3     1  UNL1        0.0954
     32 N         140.8357  143.6755  162.6761 N.3     1  UNL1       -0.1594
     33 C         142.2064  143.4343  163.2357 C.3     1  UNL1        0.0954
     34 C         142.3839  142.5365  164.4241 C.3     1  UNL1        0.0195
     35 S         140.6581  144.5733  161.4877 S.O2    1  UNL1        0.0457
     36 C         140.4807  145.4711  160.2992 C.3     1  UNL1        0.1960
     37 O         139.1692  144.4955  161.6512 O.2     1  UNL1       -0.1572
     38 O         142.1472  144.6512  161.3240 O.2     1  UNL1       -0.1572
@<TRIPOS>BOND
     1    12    13    1
     2    13    14   ar
     3    14    15   ar
     4    15    16   ar
     5    16    17   ar
     6    17    18    1
     7    17    19   ar
     8    19     2    1
     9     2     3    2
    10     2     4   am
    11     4     5    1
    12     6     5    1
    13     6     7    1
    14     7     8    1
    15     8     1    1
    16     1    20    1
    17    20    21    1
    18    21    22    1
    19    22    23   ar
    20    23    24   ar
    21    24    25   ar
    22    25    26   ar
    23    26    27    1
    24    26    28   ar
    25    21    29    1
    26    29    30    1
    27    30    31    1
    28    31    32    1
    29    32    35    1
    30    35    36    1
    31    35    37    2
    32    35    38    2
    33    32    33    1
    34    33    34    1
    35     8     9    1
    36    10     9    1
    37    10    11    1
    38    19    13   ar
    39    11     4    1
    40    10     6    1
    41    28    22   ar
    42    34    29    1
@<TRIPOS>MOLECULE
*****
 38 42 0 0 0
SMALL
GASTEIGER

@<TRIPOS>ATOM
      1 C         142.8450  138.3706  165.8743 C.3     1  UNL1        0.0724
      2 C         142.8463  138.8352  158.2720 C.2     1  UNL1        0.2513
      3 O         144.0135  139.4502  157.5584 O.2     1  UNL1       -0.2698
      4 N         142.8460  138.7437  159.7693 N.am    1  UNL1       -0.2759
      5 C         141.7556  138.1581  160.6166 C.3     1  UNL1        0.0951
      6 C         142.1718  138.2742  162.0530 C.3     1  UNL1        0.0388
      7 C         141.7551  137.9841  163.4644 C.3     1  UNL1        0.0739
      8 N         142.8452  138.4621  164.3772 N.3     1  UNL1       -0.2726
      9 C         143.9357  139.0478  163.5298 C.3     1  UNL1        0.0739
     10 C         143.5195  138.9316  162.0934 C.3     1  UNL1        0.0388
     11 C         143.9362  139.2218  160.6819 C.3     1  UNL1        0.0951
     12 C         140.3463  140.4755  158.0275 C.3     1  UNL1        0.0523
     13 C         140.4293  139.1318  157.3661 C.ar    1  UNL1        0.0666
     14 N         139.2624  138.6081  156.5825 N.ar    1  UNL1       -0.2282
     15 C         139.3454  137.2644  155.9211 C.ar    1  UNL1        0.1982
     16 N         140.5953  136.4442  156.0434 N.ar    1  UNL1       -0.2282
     17 C         141.7623  136.9679  156.8271 C.ar    1  UNL1        0.0666
     18 C         143.0122  136.1477  156.9493 C.3     1  UNL1        0.0523
     19 C         141.6793  138.3116  157.4884 C.ar    1  UNL1        0.0807
     20 C         143.1229  139.5914  166.7004 C.3     1  UNL1        0.0217
     21 C         142.2014  140.7728  166.6266 C.3     1  UNL1        0.0239
     22 C         141.4218  141.1926  167.8374 C.ar    1  UNL1       -0.0202
     23 C         141.0997  142.6410  168.0569 C.ar    1  UNL1       -0.0041
     24 C         140.3201  143.0608  169.2677 C.ar    1  UNL1        0.0020
     25 C         139.8626  142.0321  170.2589 C.ar    1  UNL1        0.0296
     26 C         140.1847  140.5837  170.0395 C.ar    1  UNL1        0.1398
     27 F         139.7272  139.5550  171.0307 F       1  UNL1       -0.2042
     28 C         140.9643  140.1638  168.8286 C.ar    1  UNL1        0.0254
     29 C         142.0596  141.5343  165.3421 C.3     1  UNL1        0.0070
     30 C         140.7909  141.4353  164.5477 C.3     1  UNL1        0.0195
     31 C         140.6491  142.1968  163.2633 C.3     1  UNL1        0.0954
     32 N         141.7757  143.0573  162.7731 N.3     1  UNL1       -0.1594
     33 C         143.0443  143.1563  163.5675 C.3     1  UNL1        0.0954
     34 C         143.1861  142.3947  164.8520 C.3     1  UNL1        0.0195
     35 S         141.6339  143.8188  161.4886 S.O2    1  UNL1        0.0457
     36 C         141.4921  144.5805  160.2041 C.3     1  UNL1        0.1960
     37 O         140.4175  143.0115  161.1442 O.2     1  UNL1       -0.1572
     38 O         142.8503  144.6263  161.8330 O.2     1  UNL1       -0.1572
@<TRIPOS>BOND
     1    12    13    1
     2    13    14   ar
     3    14    15   ar
     4    15    16   ar
     5    16    17   ar
     6    17    18    1
     7    17    19   ar
     8    19     2    1
     9     2     3    2
    10     2     4   am
    11     4     5    1
    12     6     5    1
    13     6     7    1
    14     7     8    1
    15     8     1    1
    16     1    20    1
    17    20    21    1
    18    21    22    1
    19    22    23   ar
    20    23    24   ar
    21    24    25   ar
    22    25    26   ar
    23    26    27    1
    24    26    28   ar
    25    21    29    1
    26    29    30    1
    27    30    31    1
    28    31    32    1
    29    32    35    1
    30    35    36    1
    31    35    37    2
    32    35    38    2
    33    32    33    1
    34    33    34    1
    35     8     9    1
    36    10     9    1
    37    10    11    1
    38    19    13   ar
    39    11     4    1
    40    10     6    1
    41    28    22   ar
    42    34    29    1
