@<TRIPOS>MOLECULE
*****
 39 42 0 0 0
SMALL
GASTEIGER

@<TRIPOS>ATOM
      1 N         140.7844  142.6550  166.1415 N.am    1  UNL1       -0.2781
      2 C         142.1518  142.3609  165.5995 C.2     1  UNL1        0.2686
      3 O         143.0512  141.3976  166.3157 O.2     1  UNL1       -0.2681
      4 H         140.1940  143.2873  165.6715 H       1  UNL1        0.1553
      5 C         142.6197  143.0301  164.3412 C.ar    1  UNL1        0.1507
      6 N         141.8394  142.8675  163.0705 N.ar    1  UNL1       -0.2206
      7 C         142.3072  143.5367  161.8122 C.ar    1  UNL1        0.1668
      8 N         143.5554  144.3685  161.8246 N.ar    1  UNL1       -0.2236
      9 C         144.3358  144.5311  163.0954 C.ar    1  UNL1        0.1163
     10 C         143.8679  143.8619  164.3536 C.ar    1  UNL1        0.0834
     11 N         144.6482  144.0244  165.6243 N.pl3   1  UNL1       -0.3545
     12 H         145.4674  144.5704  165.6325 H       1  UNL1        0.1424
     13 H         144.3411  143.5852  166.4502 H       1  UNL1        0.1424
     14 C         141.5269  143.3742  160.5416 C.ar    1  UNL1        0.0906
     15 C         141.5548  142.0670  159.8063 C.ar    1  UNL1        0.1452
     16 F         142.3630  140.9224  160.3418 F       1  UNL1       -0.2040
     17 C         140.7745  141.9044  158.5356 C.ar    1  UNL1        0.0299
     18 C         139.9663  143.0490  158.0002 C.ar    1  UNL1        0.0046
     19 C         139.9384  144.3562  158.7353 C.ar    1  UNL1        0.0299
     20 C         140.7187  144.5188  160.0061 C.ar    1  UNL1        0.1452
     21 F         140.6908  145.8259  160.7413 F       1  UNL1       -0.2040
     22 C         139.6872  140.6257  167.3366 C.ar    1  UNL1       -0.0059
     23 C         139.2193  139.9565  168.5948 C.ar    1  UNL1        0.0176
     24 C         139.3808  140.6474  169.9164 C.ar    1  UNL1        0.0987
     25 N         140.0101  142.0076  169.9797 N.ar    1  UNL1       -0.2410
     26 C         140.4780  142.6768  168.7214 C.ar    1  UNL1        0.1132
     27 C         140.3165  141.9858  167.3998 C.ar    1  UNL1        0.0660
     28 C         141.1428  136.9354  163.9806 C.3     1  UNL1        0.0025
     29 C         140.2536  138.0896  164.3370 C.3     1  UNL1        0.0273
     30 C         140.4150  138.7806  165.6585 C.3     1  UNL1        0.0069
     31 C         139.5257  139.9348  166.0150 C.3     1  UNL1        0.0262
     32 C         138.4751  140.3980  165.0499 C.3     1  UNL1        0.0360
     33 C         138.3137  139.7070  163.7283 C.3     1  UNL1        0.1352
     34 O         137.2629  140.1703  162.7632 O.3     1  UNL1       -0.3821
     35 C         139.2029  138.5528  163.3719 C.3     1  UNL1        0.1128
     36 C         138.3593  138.6238  162.1337 C.3     1  UNL1        0.0318
     37 O         139.7991  137.4233  162.5854 O.3     1  UNL1       -0.3844
     38 H         137.2927  139.6206  161.9645 H       1  UNL1        0.2104
     39 H         139.3412  137.3452  161.7338 H       1  UNL1        0.2103
@<TRIPOS>BOND
     1    29    28    1
     2    29    30    1
     3    30    31    1
     4    31    22    1
     5    22    23   ar
     6    23    24   ar
     7    24    25   ar
     8    25    26   ar
     9    26    27   ar
    10    27     1    1
    11     1     2   am
    12     2     3    2
    13     2     5    1
    14     5     6   ar
    15     6     7   ar
    16     7    14    1
    17    14    15   ar
    18    15    16    1
    19    15    17   ar
    20    17    18   ar
    21    18    19   ar
    22    19    20   ar
    23    20    21    1
    24     7     8   ar
    25     8     9   ar
    26     9    10   ar
    27    10    11    1
    28    31    32    1
    29    32    33    1
    30    33    34    1
    31    33    35    1
    32    35    36    1
    33    35    37    1
    34    35    29    1
    35    27    22   ar
    36    10     5   ar
    37    20    14   ar
    38     1     4    1
    39    11    12    1
    40    11    13    1
    41    34    38    1
    42    37    39    1
@<TRIPOS>MOLECULE
*****
 39 42 0 0 0
SMALL
GASTEIGER

@<TRIPOS>ATOM
      1 N         139.8875  141.0384  166.2223 N.am    1  UNL1       -0.2781
      2 C         140.2992  142.3522  165.6268 C.2     1  UNL1        0.2686
      3 O         141.4441  143.1186  166.2199 O.2     1  UNL1       -0.2681
      4 H         139.1361  140.5354  165.8329 H       1  UNL1        0.1553
      5 C         139.5660  142.8996  164.4382 C.ar    1  UNL1        0.1507
      6 N         139.5691  142.1445  163.1421 N.ar    1  UNL1       -0.2206
      7 C         138.8359  142.6918  161.9535 C.ar    1  UNL1        0.1668
      8 N         138.0996  143.9942  162.0609 N.ar    1  UNL1       -0.2236
      9 C         138.0966  144.7494  163.3570 C.ar    1  UNL1        0.1163
     10 C         138.8298  144.2021  164.5456 C.ar    1  UNL1        0.0834
     11 N         138.8267  144.9572  165.8417 N.pl3   1  UNL1       -0.3545
     12 H         138.3435  145.8120  165.9122 H       1  UNL1        0.1424
     13 H         139.3080  144.5979  166.6218 H       1  UNL1        0.1424
     14 C         138.8389  141.9367  160.6574 C.ar    1  UNL1        0.0906
     15 C         139.5810  142.4821  159.4734 C.ar    1  UNL1        0.1452
     16 F         140.3199  143.7827  159.5854 F       1  UNL1       -0.2040
     17 C         139.5840  141.7270  158.1773 C.ar    1  UNL1        0.0299
     18 C         138.8450  140.4265  158.0653 C.ar    1  UNL1        0.0046
     19 C         138.1030  139.8811  159.2493 C.ar    1  UNL1        0.0299
     20 C         138.0999  140.6362  160.5454 C.ar    1  UNL1        0.1452
     21 F         137.3579  140.0907  161.7294 F       1  UNL1       -0.2040
     22 C         141.8671  139.6799  167.2150 C.ar    1  UNL1       -0.0059
     23 C         142.6003  139.1325  168.4036 C.ar    1  UNL1        0.0176
     24 C         142.0871  139.3965  169.7882 C.ar    1  UNL1        0.0987
     25 N         140.8407  140.2077  169.9841 N.ar    1  UNL1       -0.2410
     26 C         140.1075  140.7551  168.7955 C.ar    1  UNL1        0.1132
     27 C         140.6207  140.4911  167.4109 C.ar    1  UNL1        0.0660
     28 C         145.2238  140.7164  163.3864 C.3     1  UNL1        0.0025
     29 C         144.0587  139.9342  163.9161 C.3     1  UNL1        0.0273
     30 C         143.5454  140.1981  165.3006 C.3     1  UNL1        0.0069
     31 C         142.3803  139.4159  165.8304 C.3     1  UNL1        0.0262
     32 C         141.7284  138.3698  164.9757 C.3     1  UNL1        0.0360
     33 C         142.2416  138.1059  163.5912 C.3     1  UNL1        0.1352
     34 O         141.5897  137.0597  162.7363 O.3     1  UNL1       -0.3821
     35 C         143.4068  138.8881  163.0614 C.3     1  UNL1        0.1128
     36 C         143.1256  138.0074  161.8802 C.3     1  UNL1        0.0318
     37 O         144.4742  139.3644  162.1214 O.3     1  UNL1       -0.3844
     38 H         142.0400  137.0167  161.8782 H       1  UNL1        0.2104
     39 H         144.4154  138.8706  161.2885 H       1  UNL1        0.2103
@<TRIPOS>BOND
     1    29    28    1
     2    29    30    1
     3    30    31    1
     4    31    22    1
     5    22    23   ar
     6    23    24   ar
     7    24    25   ar
     8    25    26   ar
     9    26    27   ar
    10    27     1    1
    11     1     2   am
    12     2     3    2
    13     2     5    1
    14     5     6   ar
    15     6     7   ar
    16     7    14    1
    17    14    15   ar
    18    15    16    1
    19    15    17   ar
    20    17    18   ar
    21    18    19   ar
    22    19    20   ar
    23    20    21    1
    24     7     8   ar
    25     8     9   ar
    26     9    10   ar
    27    10    11    1
    28    31    32    1
    29    32    33    1
    30    33    34    1
    31    33    35    1
    32    35    36    1
    33    35    37    1
    34    35    29    1
    35    27    22   ar
    36    10     5   ar
    37    20    14   ar
    38     1     4    1
    39    11    12    1
    40    11    13    1
    41    34    38    1
    42    37    39    1
@<TRIPOS>MOLECULE
*****
 39 42 0 0 0
SMALL
GASTEIGER

@<TRIPOS>ATOM
      1 N         141.2912  142.6554  159.8748 N.am    1  UNL1       -0.2781
      2 C         141.3936  143.6850  160.9609 C.2     1  UNL1        0.2686
      3 O         142.5354  144.6577  160.9669 O.2     1  UNL1       -0.2681
      4 H         140.5418  142.0169  159.8709 H       1  UNL1        0.1553
      5 C         140.3542  143.7419  162.0408 C.ar    1  UNL1        0.1507
      6 N         140.2635  142.6389  163.0534 N.ar    1  UNL1       -0.2206
      7 C         139.2241  142.6958  164.1333 C.ar    1  UNL1        0.1668
      8 N         138.2753  143.8556  164.2008 N.ar    1  UNL1       -0.2236
      9 C         138.3659  144.9586  163.1882 C.ar    1  UNL1        0.1163
     10 C         139.4054  144.9018  162.1083 C.ar    1  UNL1        0.0834
     11 N         139.4960  146.0047  161.0957 N.pl3   1  UNL1       -0.3545
     12 H         138.8733  146.7660  161.1400 H       1  UNL1        0.1424
     13 H         140.1782  145.9674  160.3869 H       1  UNL1        0.1424
     14 C         139.1335  141.5929  165.1459 C.ar    1  UNL1        0.0906
     15 C         138.2459  140.4109  164.8900 C.ar    1  UNL1        0.1452
     16 F         137.4490  140.3320  163.6217 F       1  UNL1       -0.2040
     17 C         138.1553  139.3080  165.9026 C.ar    1  UNL1        0.0299
     18 C         138.9521  139.3869  167.1709 C.ar    1  UNL1        0.0046
     19 C         139.8397  140.5687  167.4268 C.ar    1  UNL1        0.0299
     20 C         139.9303  141.6718  166.4142 C.ar    1  UNL1        0.1452
     21 F         140.8179  142.8536  166.6701 F       1  UNL1       -0.2040
     22 C         143.6325  141.8961  159.0431 C.ar    1  UNL1       -0.0059
     23 C         144.6719  141.8392  157.9631 C.ar    1  UNL1        0.0176
     24 C         144.4095  142.4848  156.6349 C.ar    1  UNL1        0.0987
     25 N         143.1076  143.1872  156.3865 N.ar    1  UNL1       -0.2410
     26 C         142.0681  143.2441  157.4665 C.ar    1  UNL1        0.1132
     27 C         142.3306  142.5985  158.7948 C.ar    1  UNL1        0.0660
     28 C         142.7719  138.0441  162.4227 C.3     1  UNL1        0.0025
     29 C         143.4647  139.3245  162.0612 C.3     1  UNL1        0.0273
     30 C         143.2022  139.9701  160.7330 C.3     1  UNL1        0.0069
     31 C         143.8950  141.2505  160.3714 C.3     1  UNL1        0.0262
     32 C         144.8502  141.8852  161.3382 C.3     1  UNL1        0.0360
     33 C         145.1127  141.2396  162.6664 C.3     1  UNL1        0.1352
     34 O         146.0679  141.8743  163.6332 O.3     1  UNL1       -0.3821
     35 C         144.4199  139.9592  163.0279 C.3     1  UNL1        0.1128
     36 C         145.2326  140.1754  164.2700 C.3     1  UNL1        0.0318
     37 O         144.0094  138.7539  163.8209 O.3     1  UNL1       -0.3844
     38 H         146.1224  141.3332  164.4364 H       1  UNL1        0.2104
     39 H         144.4682  138.7576  164.6755 H       1  UNL1        0.2103
@<TRIPOS>BOND
     1    29    28    1
     2    29    30    1
     3    30    31    1
     4    31    22    1
     5    22    23   ar
     6    23    24   ar
     7    24    25   ar
     8    25    26   ar
     9    26    27   ar
    10    27     1    1
    11     1     2   am
    12     2     3    2
    13     2     5    1
    14     5     6   ar
    15     6     7   ar
    16     7    14    1
    17    14    15   ar
    18    15    16    1
    19    15    17   ar
    20    17    18   ar
    21    18    19   ar
    22    19    20   ar
    23    20    21    1
    24     7     8   ar
    25     8     9   ar
    26     9    10   ar
    27    10    11    1
    28    31    32    1
    29    32    33    1
    30    33    34    1
    31    33    35    1
    32    35    36    1
    33    35    37    1
    34    35    29    1
    35    27    22   ar
    36    10     5   ar
    37    20    14   ar
    38     1     4    1
    39    11    12    1
    40    11    13    1
    41    34    38    1
    42    37    39    1
@<TRIPOS>MOLECULE
*****
 39 42 0 0 0
SMALL
GASTEIGER

@<TRIPOS>ATOM
      1 N         139.7822  140.8573  165.9685 N.am    1  UNL1       -0.2781
      2 C         139.8189  142.3155  165.6186 C.2     1  UNL1        0.2686
      3 O         140.4803  143.2926  166.5447 O.2     1  UNL1       -0.2681
      4 H         139.3480  140.2160  165.3607 H       1  UNL1        0.1553
      5 C         139.1940  142.7965  164.3426 C.ar    1  UNL1        0.1507
      6 N         139.3954  142.0257  163.0717 N.ar    1  UNL1       -0.2206
      7 C         138.7705  142.5068  161.7957 C.ar    1  UNL1        0.1668
      8 N         137.9442  143.7586  161.7906 N.ar    1  UNL1       -0.2236
      9 C         137.7427  144.5295  163.0616 C.ar    1  UNL1        0.1163
     10 C         138.3676  144.0484  164.3376 C.ar    1  UNL1        0.0834
     11 N         138.1662  144.8192  165.6085 N.pl3   1  UNL1       -0.3545
     12 H         137.6238  145.6408  165.6052 H       1  UNL1        0.1424
     13 H         138.5763  144.5035  166.4460 H       1  UNL1        0.1424
     14 C         138.9720  141.7360  160.5248 C.ar    1  UNL1        0.0906
     15 C         139.6896  142.3688  159.3695 C.ar    1  UNL1        0.1452
     16 F         140.2057  143.7725  159.4852 F       1  UNL1       -0.2040
     17 C         139.8911  141.5981  158.0986 C.ar    1  UNL1        0.0299
     18 C         139.3749  140.1944  157.9829 C.ar    1  UNL1        0.0046
     19 C         138.6573  139.5615  159.1381 C.ar    1  UNL1        0.0299
     20 C         138.4559  140.3323  160.4091 C.ar    1  UNL1        0.1452
     21 F         137.7383  139.6995  161.5643 F       1  UNL1       -0.2040
     22 C         141.8767  140.0804  167.2949 C.ar    1  UNL1       -0.0059
     23 C         142.5016  139.5994  168.5709 C.ar    1  UNL1        0.0176
     24 C         141.6569  139.4142  169.7964 C.ar    1  UNL1        0.0987
     25 N         140.1871  139.7100  169.7460 N.ar    1  UNL1       -0.2410
     26 C         139.5622  140.1911  168.4701 C.ar    1  UNL1        0.1132
     27 C         140.4071  140.3762  167.2445 C.ar    1  UNL1        0.0660
     28 C         143.6112  138.3334  162.7189 C.3     1  UNL1        0.0025
     29 C         143.5888  139.3921  163.7813 C.3     1  UNL1        0.0273
     30 C         142.7440  139.2069  165.0069 C.3     1  UNL1        0.0069
     31 C         142.7216  140.2656  166.0693 C.3     1  UNL1        0.0262
     32 C         143.5439  141.5094  165.9062 C.3     1  UNL1        0.0360
     33 C         144.3887  141.6945  164.6806 C.3     1  UNL1        0.1352
     34 O         145.2111  142.9384  164.5174 O.3     1  UNL1       -0.3821
     35 C         144.4111  140.6359  163.6182 C.3     1  UNL1        0.1128
     36 C         145.3552  141.6322  163.0131 C.3     1  UNL1        0.0318
     37 O         144.7615  139.9233  162.3456 O.3     1  UNL1       -0.3844
     38 H         145.6937  142.8990  163.6769 H       1  UNL1        0.2104
     39 H         145.3838  140.4631  161.8335 H       1  UNL1        0.2103
@<TRIPOS>BOND
     1    29    28    1
     2    29    30    1
     3    30    31    1
     4    31    22    1
     5    22    23   ar
     6    23    24   ar
     7    24    25   ar
     8    25    26   ar
     9    26    27   ar
    10    27     1    1
    11     1     2   am
    12     2     3    2
    13     2     5    1
    14     5     6   ar
    15     6     7   ar
    16     7    14    1
    17    14    15   ar
    18    15    16    1
    19    15    17   ar
    20    17    18   ar
    21    18    19   ar
    22    19    20   ar
    23    20    21    1
    24     7     8   ar
    25     8     9   ar
    26     9    10   ar
    27    10    11    1
    28    31    32    1
    29    32    33    1
    30    33    34    1
    31    33    35    1
    32    35    36    1
    33    35    37    1
    34    35    29    1
    35    27    22   ar
    36    10     5   ar
    37    20    14   ar
    38     1     4    1
    39    11    12    1
    40    11    13    1
    41    34    38    1
    42    37    39    1
@<TRIPOS>MOLECULE
*****
 39 42 0 0 0
SMALL
GASTEIGER

@<TRIPOS>ATOM
      1 N         142.0060  142.4856  165.8896 N.am    1  UNL1       -0.2781
      2 C         140.6430  142.5911  165.2721 C.2     1  UNL1        0.2686
      3 O         139.4741  141.9032  165.9128 O.2     1  UNL1       -0.2681
      4 H         142.7731  142.9371  165.4691 H       1  UNL1        0.1553
      5 C         140.4489  143.3845  164.0140 C.ar    1  UNL1        0.1507
      6 N         141.1149  142.9491  162.7425 N.ar    1  UNL1       -0.2206
      7 C         140.9208  143.7426  161.4844 C.ar    1  UNL1        0.1668
      8 N         140.0608  144.9714  161.4979 N.ar    1  UNL1       -0.2236
      9 C         139.3947  145.4068  162.7694 C.ar    1  UNL1        0.1163
     10 C         139.5888  144.6134  164.0275 C.ar    1  UNL1        0.0834
     11 N         138.9228  145.0488  165.2991 N.pl3   1  UNL1       -0.3545
     12 H         138.3583  145.8553  165.3079 H       1  UNL1        0.1424
     13 H         139.0502  144.5280  166.1248 H       1  UNL1        0.1424
     14 C         141.5868  143.3072  160.2129 C.ar    1  UNL1        0.0906
     15 C         143.0835  143.2442  160.1336 C.ar    1  UNL1        0.1452
     16 F         143.9140  143.6167  161.3258 F       1  UNL1       -0.2040
     17 C         143.7495  142.8088  158.8620 C.ar    1  UNL1        0.0299
     18 C         142.9189  142.4364  157.6698 C.ar    1  UNL1        0.0046
     19 C         141.4224  142.4993  157.7491 C.ar    1  UNL1        0.0299
     20 C         140.7563  142.9347  159.0207 C.ar    1  UNL1        0.1452
     21 F         139.2597  142.9976  159.0999 F       1  UNL1       -0.2040
     22 C         142.4088  140.2086  167.0741 C.ar    1  UNL1       -0.0059
     23 C         142.6028  139.4151  168.3321 C.ar    1  UNL1        0.0176
     24 C         142.5881  140.1053  169.6638 C.ar    1  UNL1        0.0987
     25 N         142.3794  141.5889  169.7375 N.ar    1  UNL1       -0.2410
     26 C         142.1853  142.3823  168.4794 C.ar    1  UNL1        0.1132
     27 C         142.2000  141.6921  167.1477 C.ar    1  UNL1        0.0660
     28 C         140.0468  137.2568  163.5092 C.3     1  UNL1        0.0025
     29 C         141.2424  138.0425  163.9599 C.3     1  UNL1        0.0273
     30 C         141.2278  138.7327  165.2916 C.3     1  UNL1        0.0069
     31 C         142.4234  139.5184  165.7423 C.3     1  UNL1        0.0262
     32 C         143.6337  139.6139  164.8613 C.3     1  UNL1        0.0360
     33 C         143.6483  138.9238  163.5297 C.3     1  UNL1        0.1352
     34 O         144.8586  139.0193  162.6486 O.3     1  UNL1       -0.3821
     35 C         142.4527  138.1381  163.0789 C.3     1  UNL1        0.1128
     36 C         143.3568  137.9364  161.8991 C.3     1  UNL1        0.0318
     37 O         141.5711  137.2823  162.2184 O.3     1  UNL1       -0.3844
     38 H         144.7038  138.5203  161.8313 H       1  UNL1        0.2104
     39 H         142.0356  137.0650  161.3951 H       1  UNL1        0.2103
@<TRIPOS>BOND
     1    29    28    1
     2    29    30    1
     3    30    31    1
     4    31    22    1
     5    22    23   ar
     6    23    24   ar
     7    24    25   ar
     8    25    26   ar
     9    26    27   ar
    10    27     1    1
    11     1     2   am
    12     2     3    2
    13     2     5    1
    14     5     6   ar
    15     6     7   ar
    16     7    14    1
    17    14    15   ar
    18    15    16    1
    19    15    17   ar
    20    17    18   ar
    21    18    19   ar
    22    19    20   ar
    23    20    21    1
    24     7     8   ar
    25     8     9   ar
    26     9    10   ar
    27    10    11    1
    28    31    32    1
    29    32    33    1
    30    33    34    1
    31    33    35    1
    32    35    36    1
    33    35    37    1
    34    35    29    1
    35    27    22   ar
    36    10     5   ar
    37    20    14   ar
    38     1     4    1
    39    11    12    1
    40    11    13    1
    41    34    38    1
    42    37    39    1
@<TRIPOS>MOLECULE
*****
 39 42 0 0 0
SMALL
GASTEIGER

@<TRIPOS>ATOM
      1 N         142.3609  139.9725  162.5619 N.am    1  UNL1       -0.2781
      2 C         140.8898  139.8395  162.8234 C.2     1  UNL1        0.2686
      3 O         139.9232  139.8168  161.6766 O.2     1  UNL1       -0.2681
      4 H         142.9953  139.9873  163.3146 H       1  UNL1        0.1553
      5 C         140.3853  139.7293  164.2317 C.ar    1  UNL1        0.1507
      6 N         141.1135  140.4214  165.3455 N.ar    1  UNL1       -0.2206
      7 C         140.6091  140.3112  166.7538 C.ar    1  UNL1        0.1668
      8 N         139.3765  139.5088  167.0483 N.ar    1  UNL1       -0.2236
      9 C         138.6482  138.8166  165.9345 C.ar    1  UNL1        0.1163
     10 C         139.1526  138.9268  164.5262 C.ar    1  UNL1        0.0834
     11 N         138.4245  138.2347  163.4123 N.pl3   1  UNL1       -0.3545
     12 H         137.6155  137.7080  163.6056 H       1  UNL1        0.1424
     13 H         138.7556  138.3070  162.4880 H       1  UNL1        0.1424
     14 C         141.3372  141.0033  167.8677 C.ar    1  UNL1        0.0906
     15 C         142.4158  140.2823  168.6207 C.ar    1  UNL1        0.1452
     16 F         142.7660  138.8691  168.2598 F       1  UNL1       -0.2040
     17 C         143.1439  140.9744  169.7345 C.ar    1  UNL1        0.0299
     18 C         142.7937  142.3876  170.0954 C.ar    1  UNL1        0.0046
     19 C         141.7152  143.1086  169.3424 C.ar    1  UNL1        0.0299
     20 C         140.9870  142.4165  168.2285 C.ar    1  UNL1        0.1452
     21 F         139.9085  143.1375  167.4756 F       1  UNL1       -0.2040
     22 C         142.8508  141.4091  160.4534 C.ar    1  UNL1       -0.0059
     23 C         143.3552  141.5194  159.0450 C.ar    1  UNL1        0.0176
     24 C         143.8742  140.3032  158.3369 C.ar    1  UNL1        0.0987
     25 N         143.8887  138.9767  159.0371 N.ar    1  UNL1       -0.2410
     26 C         143.3843  138.8664  160.4454 C.ar    1  UNL1        0.1132
     27 C         142.8653  140.0827  161.1535 C.ar    1  UNL1        0.0660
     28 C         143.5429  145.2703  163.8610 C.3     1  UNL1        0.0025
     29 C         142.6779  144.5560  162.8653 C.3     1  UNL1        0.0273
     30 C         143.1968  143.3398  162.1572 C.3     1  UNL1        0.0069
     31 C         142.3318  142.6254  161.1615 C.3     1  UNL1        0.0262
     32 C         140.9478  143.1273  160.8739 C.3     1  UNL1        0.0360
     33 C         140.4289  144.3435  161.5820 C.3     1  UNL1        0.1352
     34 O         139.0449  144.8455  161.2945 O.3     1  UNL1       -0.3821
     35 C         141.2939  145.0579  162.5777 C.3     1  UNL1        0.1128
     36 C         140.0618  145.9107  162.6439 C.3     1  UNL1        0.0318
     37 O         141.7310  146.0684  163.5964 O.3     1  UNL1       -0.3844
     38 H         138.8684  145.6332  161.8322 H       1  UNL1        0.2104
     39 H         141.0153  146.7056  163.7475 H       1  UNL1        0.2103
@<TRIPOS>BOND
     1    29    28    1
     2    29    30    1
     3    30    31    1
     4    31    22    1
     5    22    23   ar
     6    23    24   ar
     7    24    25   ar
     8    25    26   ar
     9    26    27   ar
    10    27     1    1
    11     1     2   am
    12     2     3    2
    13     2     5    1
    14     5     6   ar
    15     6     7   ar
    16     7    14    1
    17    14    15   ar
    18    15    16    1
    19    15    17   ar
    20    17    18   ar
    21    18    19   ar
    22    19    20   ar
    23    20    21    1
    24     7     8   ar
    25     8     9   ar
    26     9    10   ar
    27    10    11    1
    28    31    32    1
    29    32    33    1
    30    33    34    1
    31    33    35    1
    32    35    36    1
    33    35    37    1
    34    35    29    1
    35    27    22   ar
    36    10     5   ar
    37    20    14   ar
    38     1     4    1
    39    11    12    1
    40    11    13    1
    41    34    38    1
    42    37    39    1
@<TRIPOS>MOLECULE
*****
 39 42 0 0 0
SMALL
GASTEIGER

@<TRIPOS>ATOM
      1 N         140.4695  139.7173  161.1789 N.am    1  UNL1       -0.2781
      2 C         141.7983  140.3729  161.4126 C.2     1  UNL1        0.2686
      3 O         142.3852  141.2726  160.3657 O.2     1  UNL1       -0.2681
      4 H         140.0843  139.1268  161.8661 H       1  UNL1        0.1553
      5 C         142.5402  140.1287  162.6932 C.ar    1  UNL1        0.1507
      6 N         141.9457  140.5653  163.9993 N.ar    1  UNL1       -0.2206
      7 C         142.6876  140.3212  165.2800 C.ar    1  UNL1        0.1668
      8 N         144.0239  139.6404  165.2545 N.ar    1  UNL1       -0.2236
      9 C         144.6185  139.2038  163.9483 C.ar    1  UNL1        0.1163
     10 C         143.8766  139.4480  162.6677 C.ar    1  UNL1        0.0834
     11 N         144.4711  139.0114  161.3616 N.pl3   1  UNL1       -0.3545
     12 H         145.3482  138.5646  161.3449 H       1  UNL1        0.1424
     13 H         143.9842  139.1716  160.5211 H       1  UNL1        0.1424
     14 C         142.0931  140.7577  166.5861 C.ar    1  UNL1        0.0906
     15 C         140.8984  140.0417  167.1430 C.ar    1  UNL1        0.1452
     16 F         140.2982  138.8892  166.3937 F       1  UNL1       -0.2040
     17 C         140.3039  140.4783  168.4491 C.ar    1  UNL1        0.0299
     18 C         140.9041  141.6309  169.1983 C.ar    1  UNL1        0.0046
     19 C         142.0987  142.3469  168.6415 C.ar    1  UNL1        0.0299
     20 C         142.6933  141.9103  167.3353 C.ar    1  UNL1        0.1452
     21 F         143.8879  142.6263  166.7785 F       1  UNL1       -0.2040
     22 C         138.8932  141.1977  159.7389 C.ar    1  UNL1       -0.0059
     23 C         138.1514  141.4419  158.4583 C.ar    1  UNL1        0.0176
     24 C         138.2439  140.4498  157.3370 C.ar    1  UNL1        0.0987
     25 N         139.0783  139.2135  157.4964 N.ar    1  UNL1       -0.2410
     26 C         139.8202  138.9693  158.7770 C.ar    1  UNL1        0.1132
     27 C         139.7276  139.9615  159.8983 C.ar    1  UNL1        0.0660
     28 C         140.1339  145.8137  161.7770 C.3     1  UNL1        0.0025
     29 C         139.4211  144.4978  161.8792 C.3     1  UNL1        0.0273
     30 C         139.5136  143.5057  160.7580 C.3     1  UNL1        0.0069
     31 C         138.8007  142.1899  160.8601 C.3     1  UNL1        0.0262
     32 C         137.9953  141.8662  162.0834 C.3     1  UNL1        0.0360
     33 C         137.9028  142.8583  163.2046 C.3     1  UNL1        0.1352
     34 O         137.0974  142.5347  164.4280 O.3     1  UNL1       -0.3821
     35 C         138.6157  144.1742  163.1025 C.3     1  UNL1        0.1128
     36 C         137.9813  144.3257  164.4533 C.3     1  UNL1        0.0318
     37 O         139.1082  145.5426  163.4695 O.3     1  UNL1       -0.3844
     38 H         137.1421  143.2773  165.0504 H       1  UNL1        0.2104
     39 H         138.7687  145.7843  164.3454 H       1  UNL1        0.2103
@<TRIPOS>BOND
     1    29    28    1
     2    29    30    1
     3    30    31    1
     4    31    22    1
     5    22    23   ar
     6    23    24   ar
     7    24    25   ar
     8    25    26   ar
     9    26    27   ar
    10    27     1    1
    11     1     2   am
    12     2     3    2
    13     2     5    1
    14     5     6   ar
    15     6     7   ar
    16     7    14    1
    17    14    15   ar
    18    15    16    1
    19    15    17   ar
    20    17    18   ar
    21    18    19   ar
    22    19    20   ar
    23    20    21    1
    24     7     8   ar
    25     8     9   ar
    26     9    10   ar
    27    10    11    1
    28    31    32    1
    29    32    33    1
    30    33    34    1
    31    33    35    1
    32    35    36    1
    33    35    37    1
    34    35    29    1
    35    27    22   ar
    36    10     5   ar
    37    20    14   ar
    38     1     4    1
    39    11    12    1
    40    11    13    1
    41    34    38    1
    42    37    39    1
@<TRIPOS>MOLECULE
*****
 39 42 0 0 0
SMALL
GASTEIGER

@<TRIPOS>ATOM
      1 N         140.7592  139.8066  161.4294 N.am    1  UNL1       -0.2781
      2 C         140.0455  139.5084  162.7147 C.2     1  UNL1        0.2686
      3 O         138.5481  139.4234  162.7388 O.2     1  UNL1       -0.2681
      4 H         141.7420  139.8623  161.4136 H       1  UNL1        0.1553
      5 C         140.8292  139.2951  163.9758 C.ar    1  UNL1        0.1507
      6 N         140.5477  140.1367  165.1851 N.ar    1  UNL1       -0.2206
      7 C         141.3315  139.9235  166.4461 C.ar    1  UNL1        0.1668
      8 N         142.3966  138.8687  166.4979 N.ar    1  UNL1       -0.2236
      9 C         142.6782  138.0270  165.2885 C.ar    1  UNL1        0.1163
     10 C         141.8944  138.2403  164.0275 C.ar    1  UNL1        0.0834
     11 N         142.1759  137.3987  162.8181 N.pl3   1  UNL1       -0.3545
     12 H         142.8750  136.7064  162.8521 H       1  UNL1        0.1424
     13 H         141.6615  137.5387  161.9905 H       1  UNL1        0.1424
     14 C         141.0500  140.7650  167.6555 C.ar    1  UNL1        0.0906
     15 C         139.8410  140.4861  168.4985 C.ar    1  UNL1        0.1452
     16 F         138.9134  139.3657  168.1320 F       1  UNL1       -0.2040
     17 C         139.5595  141.3277  169.7078 C.ar    1  UNL1        0.0299
     18 C         140.4870  142.4482  170.0742 C.ar    1  UNL1        0.0046
     19 C         141.6960  142.7271  169.2313 C.ar    1  UNL1        0.0299
     20 C         141.9775  141.8855  168.0219 C.ar    1  UNL1        0.1452
     21 F         143.1865  142.1644  167.1790 F       1  UNL1       -0.2040
     22 C         139.4002  141.3708  159.8623 C.ar    1  UNL1       -0.0059
     23 C         138.6164  141.5840  158.6012 C.ar    1  UNL1        0.0176
     24 C         138.4080  140.4463  157.6462 C.ar    1  UNL1        0.0987
     25 N         138.9834  139.0952  157.9523 N.ar    1  UNL1       -0.2410
     26 C         139.7671  138.8819  159.2134 C.ar    1  UNL1        0.1132
     27 C         139.9755  140.0198  160.1684 C.ar    1  UNL1        0.0660
     28 C         137.6767  144.3544  163.7518 C.3     1  UNL1        0.0025
     29 C         138.7468  144.0004  162.7620 C.3     1  UNL1        0.0273
     30 C         138.5385  142.8626  161.8070 C.3     1  UNL1        0.0069
     31 C         139.6085  142.5087  160.8173 C.3     1  UNL1        0.0262
     32 C         140.8869  143.2925  160.7824 C.3     1  UNL1        0.0360
     33 C         141.0953  144.4303  161.7374 C.3     1  UNL1        0.1352
     34 O         142.3737  145.2142  161.7026 O.3     1  UNL1       -0.3821
     35 C         140.0252  144.7842  162.7272 C.3     1  UNL1        0.1128
     36 C         141.0564  145.8154  163.0784 C.3     1  UNL1        0.0318
     37 O         139.3133  145.4964  163.8389 O.3     1  UNL1       -0.3844
     38 H         142.3460  145.9082  162.3796 H       1  UNL1        0.2104
     39 H         139.8748  146.2117  164.1765 H       1  UNL1        0.2103
@<TRIPOS>BOND
     1    29    28    1
     2    29    30    1
     3    30    31    1
     4    31    22    1
     5    22    23   ar
     6    23    24   ar
     7    24    25   ar
     8    25    26   ar
     9    26    27   ar
    10    27     1    1
    11     1     2   am
    12     2     3    2
    13     2     5    1
    14     5     6   ar
    15     6     7   ar
    16     7    14    1
    17    14    15   ar
    18    15    16    1
    19    15    17   ar
    20    17    18   ar
    21    18    19   ar
    22    19    20   ar
    23    20    21    1
    24     7     8   ar
    25     8     9   ar
    26     9    10   ar
    27    10    11    1
    28    31    32    1
    29    32    33    1
    30    33    34    1
    31    33    35    1
    32    35    36    1
    33    35    37    1
    34    35    29    1
    35    27    22   ar
    36    10     5   ar
    37    20    14   ar
    38     1     4    1
    39    11    12    1
    40    11    13    1
    41    34    38    1
    42    37    39    1
@<TRIPOS>MOLECULE
*****
 39 42 0 0 0
SMALL
GASTEIGER

@<TRIPOS>ATOM
      1 N         140.8271  140.3639  165.8812 N.am    1  UNL1       -0.2781
      2 C         141.3188  139.1934  165.0822 C.2     1  UNL1        0.2686
      3 O         142.5398  138.4430  165.5249 O.2     1  UNL1       -0.2681
      4 H         140.0257  140.8564  165.5907 H       1  UNL1        0.1553
      5 C         140.5895  138.7734  163.8406 C.ar    1  UNL1        0.1507
      6 N         141.1820  139.0543  162.4915 N.ar    1  UNL1       -0.2206
      7 C         140.4526  138.6343  161.2498 C.ar    1  UNL1        0.1668
      8 N         139.1308  137.9335  161.3573 N.ar    1  UNL1       -0.2236
      9 C         138.5383  137.6526  162.7064 C.ar    1  UNL1        0.1163
     10 C         139.2676  138.0726  163.9480 C.ar    1  UNL1        0.0834
     11 N         138.6751  137.7917  165.2971 N.pl3   1  UNL1       -0.3545
     12 H         137.8076  137.3317  165.3676 H       1  UNL1        0.1424
     13 H         139.1538  138.0673  166.1120 H       1  UNL1        0.1424
     14 C         141.0451  138.9152  159.9008 C.ar    1  UNL1        0.0906
     15 C         142.2681  138.1730  159.4494 C.ar    1  UNL1        0.1452
     16 F         142.8985  137.1500  160.3472 F       1  UNL1       -0.2040
     17 C         142.8606  138.4539  158.1004 C.ar    1  UNL1        0.0299
     18 C         142.2301  139.4769  157.2026 C.ar    1  UNL1        0.0046
     19 C         141.0073  140.2191  157.6539 C.ar    1  UNL1        0.0299
     20 C         140.4147  139.9382  159.0030 C.ar    1  UNL1        0.1452
     21 F         139.1918  140.6804  159.4543 F       1  UNL1       -0.2040
     22 C         142.6235  141.8352  167.0465 C.ar    1  UNL1       -0.0059
     23 C         143.3528  142.2552  168.2882 C.ar    1  UNL1        0.0176
     24 C         143.0151  141.6238  169.6062 C.ar    1  UNL1        0.0987
     25 N         141.9480  140.5723  169.6826 N.ar    1  UNL1       -0.2410
     26 C         141.2186  140.1524  168.4409 C.ar    1  UNL1        0.1132
     27 C         141.5564  140.7838  167.1229 C.ar    1  UNL1        0.0660
     28 C         141.5841  145.3056  163.3215 C.3     1  UNL1        0.0025
     29 C         142.4416  144.2019  163.8660 C.3     1  UNL1        0.0273
     30 C         142.1038  143.5704  165.1839 C.3     1  UNL1        0.0069
     31 C         142.9613  142.4667  165.7284 C.3     1  UNL1        0.0262
     32 C         144.1566  141.9944  164.9550 C.3     1  UNL1        0.0360
     33 C         144.4943  142.6259  163.6370 C.3     1  UNL1        0.1352
     34 O         145.6896  142.1536  162.8634 O.3     1  UNL1       -0.3821
     35 C         143.6368  143.7296  163.0925 C.3     1  UNL1        0.1128
     36 C         144.6574  143.6285  161.9979 C.3     1  UNL1        0.0318
     37 O         143.1338  144.7982  162.1678 O.3     1  UNL1       -0.3844
     38 H         145.7643  142.6626  162.0411 H       1  UNL1        0.2104
     39 H         143.7113  144.8510  161.3902 H       1  UNL1        0.2103
@<TRIPOS>BOND
     1    29    28    1
     2    29    30    1
     3    30    31    1
     4    31    22    1
     5    22    23   ar
     6    23    24   ar
     7    24    25   ar
     8    25    26   ar
     9    26    27   ar
    10    27     1    1
    11     1     2   am
    12     2     3    2
    13     2     5    1
    14     5     6   ar
    15     6     7   ar
    16     7    14    1
    17    14    15   ar
    18    15    16    1
    19    15    17   ar
    20    17    18   ar
    21    18    19   ar
    22    19    20   ar
    23    20    21    1
    24     7     8   ar
    25     8     9   ar
    26     9    10   ar
    27    10    11    1
    28    31    32    1
    29    32    33    1
    30    33    34    1
    31    33    35    1
    32    35    36    1
    33    35    37    1
    34    35    29    1
    35    27    22   ar
    36    10     5   ar
    37    20    14   ar
    38     1     4    1
    39    11    12    1
    40    11    13    1
    41    34    38    1
    42    37    39    1
