@<TRIPOS>MOLECULE
*****
 27 29 0 0 0
SMALL
GASTEIGER

@<TRIPOS>ATOM
      1 N         142.1610  143.7788  162.0648 N.3     1  UNL1       -0.2682
      2 C         142.9102  144.5673  163.0977 C.3     1  UNL1        0.0897
      3 C         143.2496  143.9418  164.4182 C.3     1  UNL1        0.0899
      4 N         142.8398  142.5278  164.7057 N.3     1  UNL1       -0.2665
      5 C         142.0906  141.7393  163.6728 C.3     1  UNL1        0.0899
      6 C         141.7512  142.3648  162.3523 C.3     1  UNL1        0.0897
      7 C         141.8216  144.4043  160.7444 C.3     1  UNL1        0.1056
      8 O         139.6087  144.3488  159.3842 O.3     1  UNL1       -0.3793
      9 C         140.4369  144.9242  160.4946 C.3     1  UNL1        0.1700
     10 H         138.7469  144.7934  159.3599 H       1  UNL1        0.2106
     11 C         139.8805  146.0195  161.3553 C.3     1  UNL1        0.2358
     12 O         138.6682  145.7659  162.2015 O.3     1  UNL1       -0.4728
     13 C         138.6074  144.5513  163.0797 C.ar    1  UNL1        0.1388
     14 C         137.8272  143.3474  162.6416 C.ar    1  UNL1        0.0392
     15 C         137.7664  142.1329  163.5198 C.ar    1  UNL1        0.0327
     16 C         138.4857  142.1223  164.8361 C.ar    1  UNL1        0.1403
     17 F         138.4248  140.9078  165.7143 F       1  UNL1       -0.2042
     18 C         139.2658  143.3262  165.2741 C.ar    1  UNL1        0.0327
     19 C         139.3267  144.5407  164.3959 C.ar    1  UNL1        0.0392
     20 C         143.1792  141.9023  166.0261 C.3     1  UNL1        0.0992
     21 C         142.0870  141.5519  166.9928 C.ar    1  UNL1       -0.0061
     22 C         141.5754  142.5847  167.9529 C.ar    1  UNL1       -0.0021
     23 C         140.4833  142.2343  168.9196 C.ar    1  UNL1        0.0111
     24 C         139.9028  140.8512  168.9263 C.ar    1  UNL1        0.0577
     25 CL        138.8107  140.5008  169.8930 Cl      1  UNL1       -0.0822
     26 C         140.4145  139.8184  167.9663 C.ar    1  UNL1        0.0111
     27 C         141.5066  140.1688  166.9995 C.ar    1  UNL1       -0.0021
@<TRIPOS>BOND
     1     9     8    1
     2     9    11    1
     3    11    12    1
     4    12    13    1
     5    13    14   ar
     6    14    15   ar
     7    15    16   ar
     8    16    17    1
     9    16    18   ar
    10    18    19   ar
    11     9     7    1
    12     7     1    1
    13     1     2    1
    14     2     3    1
    15     3     4    1
    16     4    20    1
    17    20    21    1
    18    21    22   ar
    19    22    23   ar
    20    23    24   ar
    21    24    25    1
    22    24    26   ar
    23    26    27   ar
    24     4     5    1
    25     5     6    1
    26    19    13   ar
    27     6     1    1
    28    27    21   ar
    29     8    10    1
@<TRIPOS>MOLECULE
*****
 27 29 0 0 0
SMALL
GASTEIGER

@<TRIPOS>ATOM
      1 N         138.8014  139.8014  159.9467 N.3     1  UNL1       -0.2682
      2 C         140.2261  139.5176  160.3206 C.3     1  UNL1        0.0897
      3 C         140.5367  138.7961  161.5984 C.3     1  UNL1        0.0899
      4 N         139.4226  138.3584  162.5024 N.3     1  UNL1       -0.2665
      5 C         137.9980  138.6422  162.1286 C.3     1  UNL1        0.0899
      6 C         137.6873  139.3637  160.8507 C.3     1  UNL1        0.0897
      7 C         138.4909  140.5229  158.6689 C.3     1  UNL1        0.1056
      8 O         137.6733  142.6867  157.4859 O.3     1  UNL1       -0.3793
      9 C         138.2790  142.0078  158.6785 C.3     1  UNL1        0.1700
     10 H         137.6068  143.6395  157.6554 H       1  UNL1        0.2106
     11 C         138.6727  142.8139  159.8807 C.3     1  UNL1        0.2358
     12 O         137.7202  142.9604  161.0302 O.3     1  UNL1       -0.4728
     13 C         138.2468  143.0868  162.4291 C.ar    1  UNL1        0.1388
     14 C         137.8083  144.2304  163.2950 C.ar    1  UNL1        0.0392
     15 C         138.3348  144.3568  164.6938 C.ar    1  UNL1        0.0327
     16 C         139.2999  143.3396  165.2267 C.ar    1  UNL1        0.1403
     17 F         139.8264  143.4660  166.6256 F       1  UNL1       -0.2042
     18 C         139.7384  142.1960  164.3608 C.ar    1  UNL1        0.0327
     19 C         139.2119  142.0696  162.9620 C.ar    1  UNL1        0.0392
     20 C         139.7332  137.6368  163.7803 C.3     1  UNL1        0.0992
     21 C         139.6648  138.3664  165.0892 C.ar    1  UNL1       -0.0061
     22 C         140.8869  139.0437  165.6349 C.ar    1  UNL1       -0.0021
     23 C         140.8186  139.7732  166.9438 C.ar    1  UNL1        0.0111
     24 C         139.5283  139.8254  167.7070 C.ar    1  UNL1        0.0577
     25 CL        139.4600  140.5549  169.0158 Cl      1  UNL1       -0.0822
     26 C         138.3062  139.1480  167.1612 C.ar    1  UNL1        0.0111
     27 C         138.3745  138.4185  165.8523 C.ar    1  UNL1       -0.0021
@<TRIPOS>BOND
     1     9     8    1
     2     9    11    1
     3    11    12    1
     4    12    13    1
     5    13    14   ar
     6    14    15   ar
     7    15    16   ar
     8    16    17    1
     9    16    18   ar
    10    18    19   ar
    11     9     7    1
    12     7     1    1
    13     1     2    1
    14     2     3    1
    15     3     4    1
    16     4    20    1
    17    20    21    1
    18    21    22   ar
    19    22    23   ar
    20    23    24   ar
    21    24    25    1
    22    24    26   ar
    23    26    27   ar
    24     4     5    1
    25     5     6    1
    26    19    13   ar
    27     6     1    1
    28    27    21   ar
    29     8    10    1
@<TRIPOS>MOLECULE
*****
 27 29 0 0 0
SMALL
GASTEIGER

@<TRIPOS>ATOM
      1 N         142.5171  140.3133  168.6077 N.3     1  UNL1       -0.2682
      2 C         142.8094  141.7775  168.4637 C.3     1  UNL1        0.0897
      3 C         143.2430  142.3289  167.1378 C.3     1  UNL1        0.0899
      4 N         143.3843  141.4162  165.9559 N.3     1  UNL1       -0.2665
      5 C         143.0919  139.9520  166.0999 C.3     1  UNL1        0.0899
      6 C         142.6583  139.4005  167.4258 C.3     1  UNL1        0.0897
      7 C         142.0835  139.7619  169.9335 C.3     1  UNL1        0.1056
      8 O         140.7430  140.4341  172.0551 O.3     1  UNL1       -0.3793
      9 C         140.8141  140.2470  170.5685 C.3     1  UNL1        0.1700
     10 H         139.8590  140.7501  172.2993 H       1  UNL1        0.2106
     11 C         139.6156  140.5449  169.7170 C.3     1  UNL1        0.2358
     12 O         139.1436  139.5398  168.7085 O.3     1  UNL1       -0.4728
     13 C         139.0761  139.9094  167.2563 C.ar    1  UNL1        0.1388
     14 C         139.6481  141.2141  166.7870 C.ar    1  UNL1        0.0392
     15 C         139.5805  141.5836  165.3348 C.ar    1  UNL1        0.0327
     16 C         138.9409  140.6483  164.3519 C.ar    1  UNL1        0.1403
     17 F         138.8734  141.0178  162.8996 F       1  UNL1       -0.2042
     18 C         138.3689  139.3435  164.8212 C.ar    1  UNL1        0.0327
     19 C         138.4365  138.9740  166.2734 C.ar    1  UNL1        0.0392
     20 C         143.8179  141.9675  164.6301 C.3     1  UNL1        0.0992
     21 C         142.9320  142.9258  163.8904 C.ar    1  UNL1       -0.0061
     22 C         142.9550  144.3859  164.2335 C.ar    1  UNL1       -0.0021
     23 C         142.0692  145.3441  163.4939 C.ar    1  UNL1        0.0111
     24 C         141.1605  144.8424  162.4110 C.ar    1  UNL1        0.0577
     25 CL        140.2747  145.8006  161.6714 Cl      1  UNL1       -0.0822
     26 C         141.1375  143.3823  162.0679 C.ar    1  UNL1        0.0111
     27 C         142.0233  142.4241  162.8076 C.ar    1  UNL1       -0.0021
@<TRIPOS>BOND
     1     9     8    1
     2     9    11    1
     3    11    12    1
     4    12    13    1
     5    13    14   ar
     6    14    15   ar
     7    15    16   ar
     8    16    17    1
     9    16    18   ar
    10    18    19   ar
    11     9     7    1
    12     7     1    1
    13     1     2    1
    14     2     3    1
    15     3     4    1
    16     4    20    1
    17    20    21    1
    18    21    22   ar
    19    22    23   ar
    20    23    24   ar
    21    24    25    1
    22    24    26   ar
    23    26    27   ar
    24     4     5    1
    25     5     6    1
    26    19    13   ar
    27     6     1    1
    28    27    21   ar
    29     8    10    1
@<TRIPOS>MOLECULE
*****
 27 29 0 0 0
SMALL
GASTEIGER

@<TRIPOS>ATOM
      1 N         138.7132  141.4172  162.2348 N.3     1  UNL1       -0.2682
      2 C         137.7464  141.6241  163.3629 C.3     1  UNL1        0.0897
      3 C         138.2447  142.0711  164.7053 C.3     1  UNL1        0.0899
      4 N         139.7097  142.3113  164.9195 N.3     1  UNL1       -0.2665
      5 C         140.6765  142.1045  163.7915 C.3     1  UNL1        0.0899
      6 C         140.1783  141.6574  162.4491 C.3     1  UNL1        0.0897
      7 C         138.2149  140.9702  160.8925 C.3     1  UNL1        0.1056
      8 O         136.1506  139.5394  160.2284 O.3     1  UNL1       -0.3793
      9 C         137.5558  139.6309  160.7452 C.3     1  UNL1        0.1700
     10 H         135.8782  138.6090  160.1952 H       1  UNL1        0.2106
     11 C         138.3018  138.3831  161.1146 C.3     1  UNL1        0.2358
     12 O         138.3737  137.9490  162.5486 O.3     1  UNL1       -0.4728
     13 C         139.6569  138.0922  163.3122 C.ar    1  UNL1        0.1388
     14 C         140.9701  137.8861  162.6173 C.ar    1  UNL1        0.0392
     15 C         142.2532  138.0293  163.3809 C.ar    1  UNL1        0.0327
     16 C         142.2230  138.3787  164.8393 C.ar    1  UNL1        0.1403
     17 F         143.5062  138.5219  165.6029 F       1  UNL1       -0.2042
     18 C         140.9098  138.5848  165.5342 C.ar    1  UNL1        0.0327
     19 C         139.6267  138.4416  164.7706 C.ar    1  UNL1        0.0392
     20 C         140.2080  142.7583  166.2619 C.3     1  UNL1        0.0992
     21 C         140.7858  141.7579  167.2186 C.ar    1  UNL1       -0.0061
     22 C         139.8800  140.9713  168.1191 C.ar    1  UNL1       -0.0021
     23 C         140.4578  139.9710  169.0758 C.ar    1  UNL1        0.0111
     24 C         141.9415  139.7571  169.1322 C.ar    1  UNL1        0.0577
     25 CL        142.5193  138.7568  170.0889 Cl      1  UNL1       -0.0822
     26 C         142.8473  140.5437  168.2317 C.ar    1  UNL1        0.0111
     27 C         142.2694  141.5441  167.2749 C.ar    1  UNL1       -0.0021
@<TRIPOS>BOND
     1     9     8    1
     2     9    11    1
     3    11    12    1
     4    12    13    1
     5    13    14   ar
     6    14    15   ar
     7    15    16   ar
     8    16    17    1
     9    16    18   ar
    10    18    19   ar
    11     9     7    1
    12     7     1    1
    13     1     2    1
    14     2     3    1
    15     3     4    1
    16     4    20    1
    17    20    21    1
    18    21    22   ar
    19    22    23   ar
    20    23    24   ar
    21    24    25    1
    22    24    26   ar
    23    26    27   ar
    24     4     5    1
    25     5     6    1
    26    19    13   ar
    27     6     1    1
    28    27    21   ar
    29     8    10    1
@<TRIPOS>MOLECULE
*****
 27 29 0 0 0
SMALL
GASTEIGER

@<TRIPOS>ATOM
      1 N         140.2554  139.2961  159.9924 N.3     1  UNL1       -0.2682
      2 C         140.5195  140.6419  160.6000 C.3     1  UNL1        0.0897
      3 C         139.7411  141.0879  161.8021 C.3     1  UNL1        0.0899
      4 N         138.6985  140.1882  162.3967 N.3     1  UNL1       -0.2665
      5 C         138.4344  138.8425  161.7892 C.3     1  UNL1        0.0899
      6 C         139.2128  138.3964  160.5870 C.3     1  UNL1        0.0897
      7 C         141.0338  138.8501  158.7903 C.3     1  UNL1        0.1056
      8 O         143.2119  137.8647  157.7730 O.3     1  UNL1       -0.3793
      9 C         142.3474  138.1477  158.9658 C.3     1  UNL1        0.1700
     10 H         144.0188  137.4088  158.0593 H       1  UNL1        0.2106
     11 C         142.7967  137.7281  160.3341 C.3     1  UNL1        0.2358
     12 O         143.5393  138.6943  161.2087 O.3     1  UNL1       -0.4728
     13 C         143.2973  138.7047  162.6891 C.ar    1  UNL1        0.1388
     14 C         144.3505  139.2326  163.6175 C.ar    1  UNL1        0.0392
     15 C         144.1084  139.2430  165.0978 C.ar    1  UNL1        0.0327
     16 C         142.8132  138.7254  165.6496 C.ar    1  UNL1        0.1403
     17 F         142.5712  138.7358  167.1300 F       1  UNL1       -0.2042
     18 C         141.7600  138.1975  164.7212 C.ar    1  UNL1        0.0327
     19 C         142.0021  138.1871  163.2409 C.ar    1  UNL1        0.0392
     20 C         137.9201  140.6343  163.5988 C.3     1  UNL1        0.0992
     21 C         138.5004  140.4682  164.9720 C.ar    1  UNL1       -0.0061
     22 C         138.0613  139.3253  165.8386 C.ar    1  UNL1       -0.0021
     23 C         138.6415  139.1592  167.2118 C.ar    1  UNL1        0.0111
     24 C         139.6609  140.1360  167.7185 C.ar    1  UNL1        0.0577
     25 CL        140.2412  139.9699  169.0917 Cl      1  UNL1       -0.0822
     26 C         140.1001  141.2789  166.8519 C.ar    1  UNL1        0.0111
     27 C         139.5198  141.4449  165.4786 C.ar    1  UNL1       -0.0021
@<TRIPOS>BOND
     1     9     8    1
     2     9    11    1
     3    11    12    1
     4    12    13    1
     5    13    14   ar
     6    14    15   ar
     7    15    16   ar
     8    16    17    1
     9    16    18   ar
    10    18    19   ar
    11     9     7    1
    12     7     1    1
    13     1     2    1
    14     2     3    1
    15     3     4    1
    16     4    20    1
    17    20    21    1
    18    21    22   ar
    19    22    23   ar
    20    23    24   ar
    21    24    25    1
    22    24    26   ar
    23    26    27   ar
    24     4     5    1
    25     5     6    1
    26    19    13   ar
    27     6     1    1
    28    27    21   ar
    29     8    10    1
@<TRIPOS>MOLECULE
*****
 27 29 0 0 0
SMALL
GASTEIGER

@<TRIPOS>ATOM
      1 N         140.4399  142.3277  161.1953 N.3     1  UNL1       -0.2682
      2 C         139.2009  141.8471  161.8911 C.3     1  UNL1        0.0897
      3 C         139.2888  140.7414  162.9009 C.3     1  UNL1        0.0899
      4 N         140.6156  140.1162  163.2149 N.3     1  UNL1       -0.2665
      5 C         141.8546  140.5967  162.5192 C.3     1  UNL1        0.0899
      6 C         141.7667  141.7024  161.5093 C.3     1  UNL1        0.0897
      7 C         140.3520  143.4334  160.1856 C.3     1  UNL1        0.1056
      8 O         141.9703  145.4456  159.8992 O.3     1  UNL1       -0.3793
      9 C         140.7743  144.8238  160.5573 C.3     1  UNL1        0.1700
     10 H         142.1044  146.3396  160.2508 H       1  UNL1        0.2106
     11 C         140.0007  145.5925  161.5872 C.3     1  UNL1        0.2358
     12 O         140.6579  145.9922  162.8750 O.3     1  UNL1       -0.4728
     13 C         141.4733  144.9939  163.6423 C.ar    1  UNL1        0.1388
     14 C         142.9699  145.0137  163.5438 C.ar    1  UNL1        0.0392
     15 C         143.7852  144.0154  164.3111 C.ar    1  UNL1        0.0327
     16 C         143.1039  142.9975  165.1769 C.ar    1  UNL1        0.1403
     17 F         143.9193  141.9992  165.9442 F       1  UNL1       -0.2042
     18 C         141.6073  142.9778  165.2754 C.ar    1  UNL1        0.0327
     19 C         140.7920  143.9760  164.5081 C.ar    1  UNL1        0.0392
     20 C         140.7035  139.0105  164.2247 C.3     1  UNL1        0.0992
     21 C         140.9762  139.3298  165.6647 C.ar    1  UNL1       -0.0061
     22 C         139.8735  139.8474  166.5400 C.ar    1  UNL1       -0.0021
     23 C         140.1461  140.1668  167.9800 C.ar    1  UNL1        0.0111
     24 C         141.5215  139.9685  168.5448 C.ar    1  UNL1        0.0577
     25 CL        141.7942  140.2878  169.9848 Cl      1  UNL1       -0.0822
     26 C         142.6243  139.4508  167.6696 C.ar    1  UNL1        0.0111
     27 C         142.3516  139.1315  166.2295 C.ar    1  UNL1       -0.0021
@<TRIPOS>BOND
     1     9     8    1
     2     9    11    1
     3    11    12    1
     4    12    13    1
     5    13    14   ar
     6    14    15   ar
     7    15    16   ar
     8    16    17    1
     9    16    18   ar
    10    18    19   ar
    11     9     7    1
    12     7     1    1
    13     1     2    1
    14     2     3    1
    15     3     4    1
    16     4    20    1
    17    20    21    1
    18    21    22   ar
    19    22    23   ar
    20    23    24   ar
    21    24    25    1
    22    24    26   ar
    23    26    27   ar
    24     4     5    1
    25     5     6    1
    26    19    13   ar
    27     6     1    1
    28    27    21   ar
    29     8    10    1
@<TRIPOS>MOLECULE
*****
 27 29 0 0 0
SMALL
GASTEIGER

@<TRIPOS>ATOM
      1 N         139.8107  139.0954  162.5414 N.3     1  UNL1       -0.2682
      2 C         140.9438  138.6984  163.4406 C.3     1  UNL1        0.0897
      3 C         140.7672  138.7337  164.9297 C.3     1  UNL1        0.0899
      4 N         139.4576  139.1660  165.5197 N.3     1  UNL1       -0.2665
      5 C         138.3245  139.5629  164.6206 C.3     1  UNL1        0.0899
      6 C         138.5010  139.5276  163.1313 C.3     1  UNL1        0.0897
      7 C         139.9872  139.0600  161.0522 C.3     1  UNL1        0.1056
      8 O         141.1903  140.0359  158.9666 O.3     1  UNL1       -0.3793
      9 C         140.6282  140.2174  160.3454 C.3     1  UNL1        0.1700
     10 H         141.5649  140.8755  158.6571 H       1  UNL1        0.2106
     11 C         140.7070  141.5562  161.0173 C.3     1  UNL1        0.2358
     12 O         139.4694  142.3880  161.1794 O.3     1  UNL1       -0.4728
     13 C         139.2312  143.1371  162.4570 C.ar    1  UNL1        0.1388
     14 C         140.3628  143.8612  163.1240 C.ar    1  UNL1        0.0392
     15 C         140.1246  144.6102  164.4015 C.ar    1  UNL1        0.0327
     16 C         138.7546  144.6352  165.0120 C.ar    1  UNL1        0.1403
     17 F         138.5164  145.3843  166.2896 F       1  UNL1       -0.2042
     18 C         137.6230  143.9112  164.3449 C.ar    1  UNL1        0.0327
     19 C         137.8612  143.1621  163.0674 C.ar    1  UNL1        0.0392
     20 C         139.2811  139.2013  167.0088 C.3     1  UNL1        0.0992
     21 C         139.6352  140.4402  167.7769 C.ar    1  UNL1       -0.0061
     22 C         140.1735  141.6409  167.0568 C.ar    1  UNL1       -0.0021
     23 C         140.5276  142.8797  167.8248 C.ar    1  UNL1        0.0111
     24 C         140.3433  142.9179  169.3130 C.ar    1  UNL1        0.0577
     25 CL        140.6974  144.1567  170.0810 Cl      1  UNL1       -0.0822
     26 C         139.8050  141.7172  170.0331 C.ar    1  UNL1        0.0111
     27 C         139.4509  140.4783  169.2650 C.ar    1  UNL1       -0.0021
@<TRIPOS>BOND
     1     9     8    1
     2     9    11    1
     3    11    12    1
     4    12    13    1
     5    13    14   ar
     6    14    15   ar
     7    15    16   ar
     8    16    17    1
     9    16    18   ar
    10    18    19   ar
    11     9     7    1
    12     7     1    1
    13     1     2    1
    14     2     3    1
    15     3     4    1
    16     4    20    1
    17    20    21    1
    18    21    22   ar
    19    22    23   ar
    20    23    24   ar
    21    24    25    1
    22    24    26   ar
    23    26    27   ar
    24     4     5    1
    25     5     6    1
    26    19    13   ar
    27     6     1    1
    28    27    21   ar
    29     8    10    1
@<TRIPOS>MOLECULE
*****
 27 29 0 0 0
SMALL
GASTEIGER

@<TRIPOS>ATOM
      1 N         140.2552  138.4914  162.2527 N.3     1  UNL1       -0.2682
      2 C         141.3082  139.5414  162.4496 C.3     1  UNL1        0.0897
      3 C         141.9513  139.7159  163.7934 C.3     1  UNL1        0.0899
      4 N         141.5414  138.8406  164.9404 N.3     1  UNL1       -0.2665
      5 C         140.4884  137.7906  164.7436 C.3     1  UNL1        0.0899
      6 C         139.8453  137.6160  163.3997 C.3     1  UNL1        0.0897
      7 C         139.6122  138.3168  160.9088 C.3     1  UNL1        0.1056
      8 O         139.3209  140.0394  158.9859 O.3     1  UNL1       -0.3793
      9 C         138.8562  139.4528  160.2859 C.3     1  UNL1        0.1700
     10 H         138.7253  140.7591  158.7247 H       1  UNL1        0.2106
     11 C         137.6356  140.0022  160.9630 C.3     1  UNL1        0.2358
     12 O         137.5821  140.0866  162.4596 O.3     1  UNL1       -0.4728
     13 C         137.9655  141.3602  163.1532 C.ar    1  UNL1        0.1388
     14 C         138.6867  141.3108  164.4674 C.ar    1  UNL1        0.0392
     15 C         139.0700  142.5844  165.1609 C.ar    1  UNL1        0.0327
     16 C         138.7322  143.9074  164.5401 C.ar    1  UNL1        0.1403
     17 F         139.1156  145.1811  165.2337 F       1  UNL1       -0.2042
     18 C         138.0110  143.9569  163.2258 C.ar    1  UNL1        0.0327
     19 C         137.6277  142.6833  162.5323 C.ar    1  UNL1        0.0392
     20 C         142.1844  139.0151  166.2843 C.3     1  UNL1        0.0992
     21 C         141.7793  140.1585  167.1667 C.ar    1  UNL1       -0.0061
     22 C         142.7314  141.2918  167.4102 C.ar    1  UNL1       -0.0021
     23 C         142.3264  142.4352  168.2926 C.ar    1  UNL1        0.0111
     24 C         140.9693  142.4453  168.9316 C.ar    1  UNL1        0.0577
     25 CL        140.5643  143.5886  169.8140 Cl      1  UNL1       -0.0822
     26 C         140.0173  141.3120  168.6882 C.ar    1  UNL1        0.0111
     27 C         140.4223  140.1686  167.8057 C.ar    1  UNL1       -0.0021
@<TRIPOS>BOND
     1     9     8    1
     2     9    11    1
     3    11    12    1
     4    12    13    1
     5    13    14   ar
     6    14    15   ar
     7    15    16   ar
     8    16    17    1
     9    16    18   ar
    10    18    19   ar
    11     9     7    1
    12     7     1    1
    13     1     2    1
    14     2     3    1
    15     3     4    1
    16     4    20    1
    17    20    21    1
    18    21    22   ar
    19    22    23   ar
    20    23    24   ar
    21    24    25    1
    22    24    26   ar
    23    26    27   ar
    24     4     5    1
    25     5     6    1
    26    19    13   ar
    27     6     1    1
    28    27    21   ar
    29     8    10    1
@<TRIPOS>MOLECULE
*****
 27 29 0 0 0
SMALL
GASTEIGER

@<TRIPOS>ATOM
      1 N         141.0480  142.7001  159.7457 N.3     1  UNL1       -0.2682
      2 C         141.8496  141.9265  160.7503 C.3     1  UNL1        0.0897
      3 C         141.2856  140.6762  161.3574 C.3     1  UNL1        0.0899
      4 N         139.9201  140.1994  160.9600 N.3     1  UNL1       -0.2665
      5 C         139.1185  140.9729  159.9554 C.3     1  UNL1        0.0899
      6 C         139.6825  142.2233  159.3482 C.3     1  UNL1        0.0897
      7 C         141.6120  143.9504  159.1385 C.3     1  UNL1        0.1056
      8 O         140.4637  145.8797  157.8312 O.3     1  UNL1       -0.3793
      9 C         140.8013  145.2123  159.1315 C.3     1  UNL1        0.1700
     10 H         139.9391  146.6771  158.0037 H       1  UNL1        0.2106
     11 C         140.3282  145.8071  160.4248 C.3     1  UNL1        0.2358
     12 O         139.1703  145.1925  161.1537 O.3     1  UNL1       -0.4728
     13 C         139.3458  144.6981  162.5590 C.ar    1  UNL1        0.1388
     14 C         138.1479  144.2996  163.3690 C.ar    1  UNL1        0.0392
     15 C         138.3234  143.8053  164.7743 C.ar    1  UNL1        0.0327
     16 C         139.6969  143.7093  165.3695 C.ar    1  UNL1        0.1403
     17 F         139.8724  143.2149  166.7748 F       1  UNL1       -0.2042
     18 C         140.8948  144.1078  164.5595 C.ar    1  UNL1        0.0327
     19 C         140.7193  144.6021  163.1543 C.ar    1  UNL1        0.0392
     20 C         139.3561  138.9491  161.5671 C.3     1  UNL1        0.0992
     21 C         138.9892  138.9210  163.0213 C.ar    1  UNL1       -0.0061
     22 C         139.1346  137.6515  163.8070 C.ar    1  UNL1       -0.0021
     23 C         138.7678  137.6233  165.2612 C.ar    1  UNL1        0.0111
     24 C         138.2556  138.8646  165.9297 C.ar    1  UNL1        0.0577
     25 CL        137.8887  138.8363  167.3839 Cl      1  UNL1       -0.0822
     26 C         138.1102  140.1340  165.1440 C.ar    1  UNL1        0.0111
     27 C         138.4770  140.1622  163.6898 C.ar    1  UNL1       -0.0021
@<TRIPOS>BOND
     1     9     8    1
     2     9    11    1
     3    11    12    1
     4    12    13    1
     5    13    14   ar
     6    14    15   ar
     7    15    16   ar
     8    16    17    1
     9    16    18   ar
    10    18    19   ar
    11     9     7    1
    12     7     1    1
    13     1     2    1
    14     2     3    1
    15     3     4    1
    16     4    20    1
    17    20    21    1
    18    21    22   ar
    19    22    23   ar
    20    23    24   ar
    21    24    25    1
    22    24    26   ar
    23    26    27   ar
    24     4     5    1
    25     5     6    1
    26    19    13   ar
    27     6     1    1
    28    27    21   ar
    29     8    10    1
