@<TRIPOS>MOLECULE
*****
 33 37 0 0 0
SMALL
GASTEIGER

@<TRIPOS>ATOM
      1 N         138.4293  140.3939  163.9198 N.3     1  UNL1       -0.2679
      2 C         138.7352  141.8431  164.1568 C.3     1  UNL1        0.0978
      3 C         137.6378  142.7863  164.5521 C.3     1  UNL1        0.0224
      4 C         137.9437  144.2356  164.7891 C.3     1  UNL1        0.0065
      5 C         139.3469  144.7416  164.6307 C.3     1  UNL1        0.0277
      6 C         140.4442  143.7984  164.2354 C.ar    1  UNL1       -0.0073
      7 C         141.8473  144.3045  164.0770 C.ar    1  UNL1       -0.0015
      8 C         142.9446  143.3613  163.6817 C.ar    1  UNL1        0.0203
      9 C         142.6388  141.9120  163.4447 C.ar    1  UNL1        0.0985
     10 N         141.2357  141.4060  163.6031 N.ar    1  UNL1       -0.2471
     11 C         140.1384  142.3492  163.9984 C.ar    1  UNL1        0.0695
     12 C         138.4982  139.4173  165.0563 C.3     1  UNL1        0.0886
     13 C         142.2666  140.4776  170.7064 C.ar    1  UNL1        0.0204
     14 C         140.8223  140.7268  171.0256 C.ar    1  UNL1        0.0984
     15 N         139.7798  140.5646  169.9594 N.ar    1  UNL1       -0.2484
     16 C         140.1815  140.1532  168.5740 C.ar    1  UNL1        0.0577
     17 C         141.6258  139.9040  168.2548 C.ar    1  UNL1        0.0073
     18 C         142.6683  140.0662  169.3210 C.ar    1  UNL1       -0.0002
     19 C         142.0276  139.4925  166.8694 C.3     1  UNL1        0.0968
     20 N         140.9851  139.3303  165.8032 N.3     1  UNL1       -0.2934
     21 C         139.5407  139.5795  166.1224 C.3     1  UNL1        0.0764
     22 C         139.1390  139.9909  167.5078 C.3     1  UNL1        0.0626
     23 H         141.0514  138.3683  165.4705 H       1  UNL1        0.1236
     24 C         138.0547  139.9213  162.5464 C.3     1  UNL1        0.0725
     25 C         138.1837  138.4696  162.1916 C.3     1  UNL1        0.0188
     26 C         139.4701  137.9478  161.6233 C.3     1  UNL1        0.0185
     27 C         140.6758  137.8047  162.5042 C.3     1  UNL1        0.0687
     28 N         141.9269  137.1758  161.9666 N.3     1  UNL1       -0.2945
     29 H         141.6430  136.3273  161.4767 H       1  UNL1        0.1234
     30 C         142.8084  137.9438  161.0269 C.3     1  UNL1        0.1140
     31 C         142.9115  138.0729  159.5360 C.3     1  UNL1        0.1604
     32 O         144.0550  139.0300  159.6980 O.3     1  UNL1       -0.3508
     33 C         143.9519  138.9010  161.1889 C.3     1  UNL1        0.1604
@<TRIPOS>BOND
     1    13    14   ar
     2    14    15   ar
     3    15    16   ar
     4    16    17   ar
     5    17    18   ar
     6    17    19    1
     7    19    20    1
     8    20    21    1
     9    21    12    1
    10    12     1    1
    11     1    24    1
    12    24    25    1
    13    25    26    1
    14    26    27    1
    15    27    28    1
    16    28    30    1
    17    30    31    1
    18    31    32    1
    19    32    33    1
    20     2     1    1
    21     2     3    1
    22     3     4    1
    23     4     5    1
    24     5     6    1
    25     6     7   ar
    26     7     8   ar
    27     8     9   ar
    28     9    10   ar
    29    10    11   ar
    30    21    22    1
    31    18    13   ar
    32    33    30    1
    33    11     2    1
    34    22    16    1
    35    11     6   ar
    36    20    23    1
    37    28    29    1
@<TRIPOS>MOLECULE
*****
 33 37 0 0 0
SMALL
GASTEIGER

@<TRIPOS>ATOM
      1 N         142.8298  138.9795  164.0796 N.3     1  UNL1       -0.2679
      2 C         143.5954  140.2681  164.0218 C.3     1  UNL1        0.0978
      3 C         145.0887  140.2476  163.8824 C.3     1  UNL1        0.0224
      4 C         145.8543  141.5363  163.8246 C.3     1  UNL1        0.0065
      5 C         145.1265  142.8453  163.9062 C.3     1  UNL1        0.0277
      6 C         143.6331  142.8658  164.0455 C.ar    1  UNL1       -0.0073
      7 C         142.9053  144.1748  164.1271 C.ar    1  UNL1       -0.0015
      8 C         141.4120  144.1952  164.2665 C.ar    1  UNL1        0.0203
      9 C         140.6464  142.9067  164.3243 C.ar    1  UNL1        0.0985
     10 N         141.3742  141.5976  164.2427 N.ar    1  UNL1       -0.2471
     11 C         142.8676  141.5772  164.1034 C.ar    1  UNL1        0.0695
     12 C         142.5565  138.3281  165.4030 C.3     1  UNL1        0.0886
     13 C         140.5284  141.8462  170.9491 C.ar    1  UNL1        0.0204
     14 C         141.9886  141.5276  171.0767 C.ar    1  UNL1        0.0984
     15 N         142.6862  140.7602  169.9930 N.ar    1  UNL1       -0.2484
     16 C         141.9237  140.3115  168.7817 C.ar    1  UNL1        0.0577
     17 C         140.4635  140.6302  168.6541 C.ar    1  UNL1        0.0073
     18 C         139.7659  141.3975  169.7379 C.ar    1  UNL1       -0.0002
     19 C         139.7010  140.1815  167.4428 C.3     1  UNL1        0.0968
     20 N         140.3986  139.4142  166.3591 N.3     1  UNL1       -0.2934
     21 C         141.8589  139.0955  166.4867 C.3     1  UNL1        0.0764
     22 C         142.6214  139.5442  167.6980 C.3     1  UNL1        0.0626
     23 H         140.2887  139.9524  165.4997 H       1  UNL1        0.1236
     24 C         142.3375  138.3421  162.8142 C.3     1  UNL1        0.0725
     25 C         141.2076  137.3567  162.8610 C.3     1  UNL1        0.0188
     26 C         139.8376  137.7642  162.4061 C.3     1  UNL1        0.0185
     27 C         138.7245  137.8959  163.4031 C.3     1  UNL1        0.0687
     28 N         138.4325  139.2271  164.0297 N.3     1  UNL1       -0.2945
     29 H         139.2864  139.5240  164.5019 H       1  UNL1        0.1234
     30 C         137.9881  140.3769  163.1751 C.3     1  UNL1        0.1140
     31 C         137.8906  140.6259  161.6991 C.3     1  UNL1        0.1604
     32 O         137.3596  142.0030  161.9664 O.3     1  UNL1       -0.3508
     33 C         137.4570  141.7541  163.4424 C.3     1  UNL1        0.1604
@<TRIPOS>BOND
     1    13    14   ar
     2    14    15   ar
     3    15    16   ar
     4    16    17   ar
     5    17    18   ar
     6    17    19    1
     7    19    20    1
     8    20    21    1
     9    21    12    1
    10    12     1    1
    11     1    24    1
    12    24    25    1
    13    25    26    1
    14    26    27    1
    15    27    28    1
    16    28    30    1
    17    30    31    1
    18    31    32    1
    19    32    33    1
    20     2     1    1
    21     2     3    1
    22     3     4    1
    23     4     5    1
    24     5     6    1
    25     6     7   ar
    26     7     8   ar
    27     8     9   ar
    28     9    10   ar
    29    10    11   ar
    30    21    22    1
    31    18    13   ar
    32    33    30    1
    33    11     2    1
    34    22    16    1
    35    11     6   ar
    36    20    23    1
    37    28    29    1
@<TRIPOS>MOLECULE
*****
 33 37 0 0 0
SMALL
GASTEIGER

@<TRIPOS>ATOM
      1 N         139.5217  140.6244  163.4497 N.3     1  UNL1       -0.2679
      2 C         140.6948  139.8018  163.0058 C.3     1  UNL1        0.0978
      3 C         140.4801  138.5929  162.1441 C.3     1  UNL1        0.0224
      4 C         141.6533  137.7703  161.7002 C.3     1  UNL1        0.0065
      5 C         143.0411  138.1566  162.1179 C.3     1  UNL1        0.0277
      6 C         143.2559  139.3655  162.9796 C.ar    1  UNL1       -0.0073
      7 C         144.6438  139.7518  163.3974 C.ar    1  UNL1       -0.0015
      8 C         144.8585  140.9607  164.2590 C.ar    1  UNL1        0.0203
      9 C         143.6854  141.7832  164.7030 C.ar    1  UNL1        0.0985
     10 N         142.2975  141.3969  164.2852 N.ar    1  UNL1       -0.2471
     11 C         142.0828  140.1881  163.4235 C.ar    1  UNL1        0.0695
     12 C         138.8531  140.3313  164.7601 C.3     1  UNL1        0.0886
     13 C         141.0752  141.8384  171.0879 C.ar    1  UNL1        0.0204
     14 C         140.5554  140.4315  171.0722 C.ar    1  UNL1        0.0984
     15 N         140.0070  139.8487  169.8035 N.ar    1  UNL1       -0.2484
     16 C         139.9784  140.6728  168.5505 C.ar    1  UNL1        0.0577
     17 C         140.4982  142.0797  168.5662 C.ar    1  UNL1        0.0073
     18 C         141.0466  142.6625  169.8349 C.ar    1  UNL1       -0.0002
     19 C         140.4697  142.9039  167.3132 C.3     1  UNL1        0.0968
     20 N         139.9213  142.3211  166.0445 N.3     1  UNL1       -0.2934
     21 C         139.4015  140.9141  166.0288 C.3     1  UNL1        0.0764
     22 C         139.4300  140.0900  167.2818 C.3     1  UNL1        0.0626
     23 H         140.6691  142.3664  165.3523 H       1  UNL1        0.1236
     24 C         139.0172  141.7401  162.5833 C.3     1  UNL1        0.0725
     25 C         137.7725  142.4838  162.9674 C.3     1  UNL1        0.0188
     26 C         137.8704  143.8743  163.5213 C.3     1  UNL1        0.0185
     27 C         138.9901  144.7755  163.0920 C.3     1  UNL1        0.0687
     28 N         140.1947  144.9452  163.9696 N.3     1  UNL1       -0.2945
     29 H         140.1433  144.2189  164.6839 H       1  UNL1        0.1234
     30 C         141.5706  144.8729  163.3768 C.3     1  UNL1        0.1140
     31 C         142.1462  144.3546  162.0923 C.3     1  UNL1        0.1604
     32 O         143.5166  144.7706  162.5384 O.3     1  UNL1       -0.3508
     33 C         142.9410  145.2890  163.8230 C.3     1  UNL1        0.1604
@<TRIPOS>BOND
     1    13    14   ar
     2    14    15   ar
     3    15    16   ar
     4    16    17   ar
     5    17    18   ar
     6    17    19    1
     7    19    20    1
     8    20    21    1
     9    21    12    1
    10    12     1    1
    11     1    24    1
    12    24    25    1
    13    25    26    1
    14    26    27    1
    15    27    28    1
    16    28    30    1
    17    30    31    1
    18    31    32    1
    19    32    33    1
    20     2     1    1
    21     2     3    1
    22     3     4    1
    23     4     5    1
    24     5     6    1
    25     6     7   ar
    26     7     8   ar
    27     8     9   ar
    28     9    10   ar
    29    10    11   ar
    30    21    22    1
    31    18    13   ar
    32    33    30    1
    33    11     2    1
    34    22    16    1
    35    11     6   ar
    36    20    23    1
    37    28    29    1
@<TRIPOS>MOLECULE
*****
 33 37 0 0 0
SMALL
GASTEIGER

@<TRIPOS>ATOM
      1 N         142.9827  141.1133  163.1638 N.3     1  UNL1       -0.2679
      2 C         142.6554  142.5613  163.3784 C.3     1  UNL1        0.0978
      3 C         143.7555  143.5496  163.6300 C.3     1  UNL1        0.0224
      4 C         143.4281  144.9977  163.8446 C.3     1  UNL1        0.0065
      5 C         142.0008  145.4574  163.8077 C.3     1  UNL1        0.0277
      6 C         140.9008  144.4691  163.5562 C.ar    1  UNL1       -0.0073
      7 C         139.4735  144.9289  163.5193 C.ar    1  UNL1       -0.0015
      8 C         138.3735  143.9406  163.2678 C.ar    1  UNL1        0.0203
      9 C         138.7007  142.4926  163.0532 C.ar    1  UNL1        0.0985
     10 N         140.1281  142.0329  163.0900 N.ar    1  UNL1       -0.2471
     11 C         141.2281  143.0211  163.3416 C.ar    1  UNL1        0.0695
     12 C         143.2057  140.2121  164.3420 C.3     1  UNL1        0.0886
     13 C         139.6907  140.3271  170.2481 C.ar    1  UNL1        0.0204
     14 C         141.1429  140.5678  170.5362 C.ar    1  UNL1        0.0984
     15 N         142.1363  140.5929  169.4126 N.ar    1  UNL1       -0.2484
     16 C         141.6776  140.3774  168.0009 C.ar    1  UNL1        0.0577
     17 C         140.2253  140.1367  167.7128 C.ar    1  UNL1        0.0073
     18 C         139.2319  140.1115  168.8363 C.ar    1  UNL1       -0.0002
     19 C         139.7665  139.9211  166.3010 C.3     1  UNL1        0.0968
     20 N         140.7600  139.9463  165.1774 N.3     1  UNL1       -0.2934
     21 C         142.2122  140.1870  165.4656 C.3     1  UNL1        0.0764
     22 C         142.6710  140.4025  166.8773 C.3     1  UNL1        0.0626
     23 H         140.4612  140.6814  164.5365 H       1  UNL1        0.1236
     24 C         143.0871  140.5665  161.7709 C.3     1  UNL1        0.0725
     25 C         144.1471  139.5587  161.4383 C.3     1  UNL1        0.0188
     26 C         143.7972  138.1026  161.3528 C.3     1  UNL1        0.0185
     27 C         142.3905  137.6864  161.0394 C.3     1  UNL1        0.0687
     28 N         141.4737  137.2504  162.1436 N.3     1  UNL1       -0.2945
     29 H         141.9536  137.4506  163.0211 H       1  UNL1        0.1234
     30 C         140.1004  137.8432  162.2562 C.3     1  UNL1        0.1140
     31 C         139.3231  138.8720  161.4898 C.3     1  UNL1        0.1604
     32 O         138.1582  138.6814  162.4154 O.3     1  UNL1       -0.3508
     33 C         138.9355  137.6526  163.1818 C.3     1  UNL1        0.1604
@<TRIPOS>BOND
     1    13    14   ar
     2    14    15   ar
     3    15    16   ar
     4    16    17   ar
     5    17    18   ar
     6    17    19    1
     7    19    20    1
     8    20    21    1
     9    21    12    1
    10    12     1    1
    11     1    24    1
    12    24    25    1
    13    25    26    1
    14    26    27    1
    15    27    28    1
    16    28    30    1
    17    30    31    1
    18    31    32    1
    19    32    33    1
    20     2     1    1
    21     2     3    1
    22     3     4    1
    23     4     5    1
    24     5     6    1
    25     6     7   ar
    26     7     8   ar
    27     8     9   ar
    28     9    10   ar
    29    10    11   ar
    30    21    22    1
    31    18    13   ar
    32    33    30    1
    33    11     2    1
    34    22    16    1
    35    11     6   ar
    36    20    23    1
    37    28    29    1
@<TRIPOS>MOLECULE
*****
 33 37 0 0 0
SMALL
GASTEIGER

@<TRIPOS>ATOM
      1 N         138.8027  140.3128  163.7593 N.3     1  UNL1       -0.2679
      2 C         138.9321  141.7865  164.0073 C.3     1  UNL1        0.0978
      3 C         137.7169  142.6007  164.3397 C.3     1  UNL1        0.0224
      4 C         137.8464  144.0744  164.5877 C.3     1  UNL1        0.0065
      5 C         139.1910  144.7338  164.5033 C.3     1  UNL1        0.0277
      6 C         140.4062  143.9196  164.1709 C.ar    1  UNL1       -0.0073
      7 C         141.7508  144.5791  164.0866 C.ar    1  UNL1       -0.0015
      8 C         142.9659  143.7649  163.7542 C.ar    1  UNL1        0.0203
      9 C         142.8365  142.2912  163.5062 C.ar    1  UNL1        0.0985
     10 N         141.4919  141.6318  163.5905 N.ar    1  UNL1       -0.2471
     11 C         140.2767  142.4460  163.9229 C.ar    1  UNL1        0.0695
     12 C         138.8141  139.3542  164.9130 C.3     1  UNL1        0.0886
     13 C         142.2063  140.5068  170.7793 C.ar    1  UNL1        0.0204
     14 C         140.7372  140.6945  171.0167 C.ar    1  UNL1        0.0984
     15 N         139.7649  140.5016  169.8908 N.ar    1  UNL1       -0.2484
     16 C         140.2618  140.1208  168.5277 C.ar    1  UNL1        0.0577
     17 C         141.7309  139.9331  168.2904 C.ar    1  UNL1        0.0073
     18 C         142.7032  140.1260  169.4162 C.ar    1  UNL1       -0.0002
     19 C         142.2278  139.5523  166.9272 C.3     1  UNL1        0.0968
     20 N         141.2555  139.3594  165.8014 N.3     1  UNL1       -0.2934
     21 C         139.7863  139.5472  166.0388 C.3     1  UNL1        0.0764
     22 C         139.2895  139.9279  167.4019 C.3     1  UNL1        0.0626
     23 H         141.3798  138.4043  165.4655 H       1  UNL1        0.1236
     24 C         138.6618  139.7977  162.3576 C.3     1  UNL1        0.0725
     25 C         137.7232  140.4720  161.4015 C.3     1  UNL1        0.0188
     26 C         138.1611  140.7560  159.9952 C.3     1  UNL1        0.0185
     27 C         138.4385  142.1664  159.5663 C.3     1  UNL1        0.0687
     28 N         138.7401  143.2170  160.5935 N.3     1  UNL1       -0.2945
     29 H         138.7116  142.7563  161.5031 H       1  UNL1        0.1234
     30 C         140.0324  143.9760  160.5330 C.3     1  UNL1        0.1140
     31 C         140.4241  145.4168  160.6772 C.3     1  UNL1        0.1604
     32 O         141.8601  145.0495  160.4473 O.3     1  UNL1       -0.3508
     33 C         141.4685  143.6087  160.3030 C.3     1  UNL1        0.1604
@<TRIPOS>BOND
     1    13    14   ar
     2    14    15   ar
     3    15    16   ar
     4    16    17   ar
     5    17    18   ar
     6    17    19    1
     7    19    20    1
     8    20    21    1
     9    21    12    1
    10    12     1    1
    11     1    24    1
    12    24    25    1
    13    25    26    1
    14    26    27    1
    15    27    28    1
    16    28    30    1
    17    30    31    1
    18    31    32    1
    19    32    33    1
    20     2     1    1
    21     2     3    1
    22     3     4    1
    23     4     5    1
    24     5     6    1
    25     6     7   ar
    26     7     8   ar
    27     8     9   ar
    28     9    10   ar
    29    10    11   ar
    30    21    22    1
    31    18    13   ar
    32    33    30    1
    33    11     2    1
    34    22    16    1
    35    11     6   ar
    36    20    23    1
    37    28    29    1
@<TRIPOS>MOLECULE
*****
 33 37 0 0 0
SMALL
GASTEIGER

@<TRIPOS>ATOM
      1 N         141.7717  140.6891  163.3362 N.3     1  UNL1       -0.2679
      2 C         140.2851  140.8746  163.2616 C.3     1  UNL1        0.0978
      3 C         139.4306  139.8289  162.6086 C.3     1  UNL1        0.0224
      4 C         137.9439  140.0145  162.5340 C.3     1  UNL1        0.0065
      5 C         137.3119  141.2457  163.1125 C.3     1  UNL1        0.0277
      6 C         138.1664  142.2913  163.7655 C.ar    1  UNL1       -0.0073
      7 C         137.5343  143.5225  164.3439 C.ar    1  UNL1       -0.0015
      8 C         138.3888  144.5682  164.9969 C.ar    1  UNL1        0.0203
      9 C         139.8753  144.3827  165.0714 C.ar    1  UNL1        0.0985
     10 N         140.5074  143.1515  164.4930 N.ar    1  UNL1       -0.2471
     11 C         139.6529  142.1058  163.8400 C.ar    1  UNL1        0.0695
     12 C         142.3744  139.9086  164.4665 C.3     1  UNL1        0.0886
     13 C         141.7870  142.2330  170.9088 C.ar    1  UNL1        0.0204
     14 C         142.9798  142.8730  170.2627 C.ar    1  UNL1        0.0984
     15 N         143.3359  142.5362  168.8450 N.ar    1  UNL1       -0.2484
     16 C         142.4991  141.5593  168.0734 C.ar    1  UNL1        0.0577
     17 C         141.3063  140.9192  168.7195 C.ar    1  UNL1        0.0073
     18 C         140.9502  141.2561  170.1372 C.ar    1  UNL1       -0.0002
     19 C         140.4694  139.9422  167.9479 C.3     1  UNL1        0.0968
     20 N         140.8255  139.6054  166.5303 N.3     1  UNL1       -0.2934
     21 C         142.0183  140.2455  165.8842 C.3     1  UNL1        0.0764
     22 C         142.8551  141.2224  166.6558 C.3     1  UNL1        0.0626
     23 H         140.0161  139.8463  165.9582 H       1  UNL1        0.1236
     24 C         142.6557  141.2841  162.2804 C.3     1  UNL1        0.0725
     25 C         144.0231  141.7837  162.6413 C.3     1  UNL1        0.0188
     26 C         144.3755  143.2258  162.4267 C.3     1  UNL1        0.0185
     27 C         143.3688  144.2966  162.7269 C.3     1  UNL1        0.0687
     28 N         142.6827  145.0170  161.6043 N.3     1  UNL1       -0.2945
     29 H         143.1036  144.6810  160.7380 H       1  UNL1        0.1234
     30 C         141.1966  144.9021  161.4367 C.3     1  UNL1        0.1140
     31 C         140.2691  143.8623  160.8814 C.3     1  UNL1        0.1604
     32 O         139.0948  144.7397  161.1997 O.3     1  UNL1       -0.3508
     33 C         140.0224  145.7795  161.7550 C.3     1  UNL1        0.1604
@<TRIPOS>BOND
     1    13    14   ar
     2    14    15   ar
     3    15    16   ar
     4    16    17   ar
     5    17    18   ar
     6    17    19    1
     7    19    20    1
     8    20    21    1
     9    21    12    1
    10    12     1    1
    11     1    24    1
    12    24    25    1
    13    25    26    1
    14    26    27    1
    15    27    28    1
    16    28    30    1
    17    30    31    1
    18    31    32    1
    19    32    33    1
    20     2     1    1
    21     2     3    1
    22     3     4    1
    23     4     5    1
    24     5     6    1
    25     6     7   ar
    26     7     8   ar
    27     8     9   ar
    28     9    10   ar
    29    10    11   ar
    30    21    22    1
    31    18    13   ar
    32    33    30    1
    33    11     2    1
    34    22    16    1
    35    11     6   ar
    36    20    23    1
    37    28    29    1
@<TRIPOS>MOLECULE
*****
 33 37 0 0 0
SMALL
GASTEIGER

@<TRIPOS>ATOM
      1 N         139.3290  142.1661  163.9160 N.3     1  UNL1       -0.2679
      2 C         139.2959  140.7198  164.3122 C.3     1  UNL1        0.0978
      3 C         138.2974  140.2421  165.3245 C.3     1  UNL1        0.0224
      4 C         138.2644  138.7957  165.7206 C.3     1  UNL1        0.0065
      5 C         139.2299  137.8271  165.1046 C.3     1  UNL1        0.0277
      6 C         140.2284  138.3048  164.0923 C.ar    1  UNL1       -0.0073
      7 C         141.1939  137.3362  163.4763 C.ar    1  UNL1       -0.0015
      8 C         142.1925  137.8140  162.4640 C.ar    1  UNL1        0.0203
      9 C         142.2255  139.2603  162.0678 C.ar    1  UNL1        0.0985
     10 N         141.2600  140.2289  162.6839 N.ar    1  UNL1       -0.2471
     11 C         140.2615  139.7511  163.6961 C.ar    1  UNL1        0.0695
     12 C         140.2641  143.1124  164.6090 C.3     1  UNL1        0.0886
     13 C         142.1797  141.6015  171.0353 C.ar    1  UNL1        0.0204
     14 C         140.7734  142.1229  171.0519 C.ar    1  UNL1        0.0984
     15 N         140.1090  142.5293  169.7700 N.ar    1  UNL1       -0.2484
     16 C         140.8509  142.4144  168.4714 C.ar    1  UNL1        0.0577
     17 C         142.2573  141.8931  168.4548 C.ar    1  UNL1        0.0073
     18 C         142.9217  141.4866  169.7368 C.ar    1  UNL1       -0.0002
     19 C         142.9993  141.7782  167.1562 C.3     1  UNL1        0.0968
     20 N         142.3349  142.1846  165.8743 N.3     1  UNL1       -0.2934
     21 C         140.9285  142.7060  165.8909 C.3     1  UNL1        0.0764
     22 C         140.1865  142.8209  167.1895 C.3     1  UNL1        0.0626
     23 H         142.3377  141.3642  165.2682 H       1  UNL1        0.1236
     24 C         138.4269  142.6662  162.8269 C.3     1  UNL1        0.0725
     25 C         138.9875  142.9700  161.4692 C.3     1  UNL1        0.0188
     26 C         139.7580  144.2369  161.2422 C.3     1  UNL1        0.0185
     27 C         141.0806  144.1939  160.5358 C.3     1  UNL1        0.0687
     28 N         142.2539  144.9430  161.0945 N.3     1  UNL1       -0.2945
     29 H         141.9175  145.8728  161.3449 H       1  UNL1        0.1234
     30 C         142.9833  144.4095  162.2917 C.3     1  UNL1        0.1140
     31 C         143.4100  144.9764  163.6133 C.3     1  UNL1        0.1604
     32 O         144.0148  143.6550  163.9849 O.3     1  UNL1       -0.3508
     33 C         143.5881  143.0881  162.6633 C.3     1  UNL1        0.1604
@<TRIPOS>BOND
     1    13    14   ar
     2    14    15   ar
     3    15    16   ar
     4    16    17   ar
     5    17    18   ar
     6    17    19    1
     7    19    20    1
     8    20    21    1
     9    21    12    1
    10    12     1    1
    11     1    24    1
    12    24    25    1
    13    25    26    1
    14    26    27    1
    15    27    28    1
    16    28    30    1
    17    30    31    1
    18    31    32    1
    19    32    33    1
    20     2     1    1
    21     2     3    1
    22     3     4    1
    23     4     5    1
    24     5     6    1
    25     6     7   ar
    26     7     8   ar
    27     8     9   ar
    28     9    10   ar
    29    10    11   ar
    30    21    22    1
    31    18    13   ar
    32    33    30    1
    33    11     2    1
    34    22    16    1
    35    11     6   ar
    36    20    23    1
    37    28    29    1
@<TRIPOS>MOLECULE
*****
 33 37 0 0 0
SMALL
GASTEIGER

@<TRIPOS>ATOM
      1 N         142.7692  142.1527  162.9888 N.3     1  UNL1       -0.2679
      2 C         142.7597  140.7051  162.5960 C.3     1  UNL1        0.0978
      3 C         143.9365  140.1154  161.8767 C.3     1  UNL1        0.0224
      4 C         143.9269  138.6677  161.4839 C.3     1  UNL1        0.0065
      5 C         142.7406  137.8099  161.8104 C.3     1  UNL1        0.0277
      6 C         141.5638  138.3996  162.5297 C.ar    1  UNL1       -0.0073
      7 C         140.3775  137.5417  162.8563 C.ar    1  UNL1       -0.0015
      8 C         139.2007  138.1314  163.5756 C.ar    1  UNL1        0.0203
      9 C         139.2102  139.5790  163.9683 C.ar    1  UNL1        0.0985
     10 N         140.3965  140.4369  163.6418 N.ar    1  UNL1       -0.2471
     11 C         141.5733  139.8472  162.9225 C.ar    1  UNL1        0.0695
     12 C         143.2529  142.5575  164.3498 C.3     1  UNL1        0.0886
     13 C         140.7593  139.9153  170.1851 C.ar    1  UNL1        0.0204
     14 C         142.1084  139.3189  169.9132 C.ar    1  UNL1        0.0984
     15 N         142.8770  139.7280  168.6917 N.ar    1  UNL1       -0.2484
     16 C         142.2964  140.7336  167.7422 C.ar    1  UNL1        0.0577
     17 C         140.9472  141.3300  168.0141 C.ar    1  UNL1        0.0073
     18 C         140.1787  140.9209  169.2355 C.ar    1  UNL1       -0.0002
     19 C         140.3666  142.3356  167.0645 C.3     1  UNL1        0.0968
     20 N         141.1351  142.7448  165.8431 N.3     1  UNL1       -0.2934
     21 C         142.4844  142.1483  165.5712 C.3     1  UNL1        0.0764
     22 C         143.0650  141.1427  166.5208 C.3     1  UNL1        0.0626
     23 H         141.2661  143.7546  165.9021 H       1  UNL1        0.1236
     24 C         142.2950  143.1957  162.0206 C.3     1  UNL1        0.0725
     25 C         142.3585  144.6477  162.3916 C.3     1  UNL1        0.0188
     26 C         141.2085  145.2894  163.1096 C.3     1  UNL1        0.0185
     27 C         140.1120  145.9511  162.3287 C.3     1  UNL1        0.0687
     28 N         138.8430  145.2058  162.0382 N.3     1  UNL1       -0.2945
     29 H         138.9996  144.6823  161.1769 H       1  UNL1        0.1234
     30 C         138.2972  144.2343  163.0423 C.3     1  UNL1        0.1140
     31 C         138.0917  144.2478  164.5281 C.3     1  UNL1        0.1604
     32 O         137.5253  142.8604  164.4623 O.3     1  UNL1       -0.3508
     33 C         137.7307  142.8470  162.9765 C.3     1  UNL1        0.1604
@<TRIPOS>BOND
     1    13    14   ar
     2    14    15   ar
     3    15    16   ar
     4    16    17   ar
     5    17    18   ar
     6    17    19    1
     7    19    20    1
     8    20    21    1
     9    21    12    1
    10    12     1    1
    11     1    24    1
    12    24    25    1
    13    25    26    1
    14    26    27    1
    15    27    28    1
    16    28    30    1
    17    30    31    1
    18    31    32    1
    19    32    33    1
    20     2     1    1
    21     2     3    1
    22     3     4    1
    23     4     5    1
    24     5     6    1
    25     6     7   ar
    26     7     8   ar
    27     8     9   ar
    28     9    10   ar
    29    10    11   ar
    30    21    22    1
    31    18    13   ar
    32    33    30    1
    33    11     2    1
    34    22    16    1
    35    11     6   ar
    36    20    23    1
    37    28    29    1
@<TRIPOS>MOLECULE
*****
 33 37 0 0 0
SMALL
GASTEIGER

@<TRIPOS>ATOM
      1 N         139.6666  140.4888  163.8348 N.3     1  UNL1       -0.2679
      2 C         139.5080  141.9598  164.0813 C.3     1  UNL1        0.0978
      3 C         138.2088  142.4969  164.6044 C.3     1  UNL1        0.0224
      4 C         138.0502  143.9680  164.8509 C.3     1  UNL1        0.0065
      5 C         139.1908  144.9020  164.5743 C.3     1  UNL1        0.0277
      6 C         140.4900  144.3650  164.0512 C.ar    1  UNL1       -0.0073
      7 C         141.6306  145.2990  163.7746 C.ar    1  UNL1       -0.0015
      8 C         142.9299  144.7620  163.2515 C.ar    1  UNL1        0.0203
      9 C         143.0885  143.2909  163.0050 C.ar    1  UNL1        0.0985
     10 N         141.9478  142.3569  163.2816 N.ar    1  UNL1       -0.2471
     11 C         140.6486  142.8939  163.8047 C.ar    1  UNL1        0.0695
     12 C         140.3967  139.6360  164.8297 C.3     1  UNL1        0.0886
     13 C         142.0746  142.1948  170.9850 C.ar    1  UNL1        0.0204
     14 C         143.1626  142.5199  170.0049 C.ar    1  UNL1        0.0984
     15 N         143.0446  142.0732  168.5779 N.ar    1  UNL1       -0.2484
     16 C         141.8386  141.3013  168.1309 C.ar    1  UNL1        0.0577
     17 C         140.7507  140.9762  169.1109 C.ar    1  UNL1        0.0073
     18 C         140.8687  141.4229  170.5380 C.ar    1  UNL1       -0.0002
     19 C         139.5446  140.2043  168.6639 C.3     1  UNL1        0.0968
     20 N         139.4266  139.7576  167.2369 N.3     1  UNL1       -0.2934
     21 C         140.5147  140.0827  166.2568 C.3     1  UNL1        0.0764
     22 C         141.7207  140.8546  166.7038 C.3     1  UNL1        0.0626
     23 H         138.5677  140.1676  166.8700 H       1  UNL1        0.1236
     24 C         139.0951  139.8704  162.5934 C.3     1  UNL1        0.0725
     25 C         139.9854  139.5809  161.4215 C.3     1  UNL1        0.0188
     26 C         140.4525  138.1791  161.1627 C.3     1  UNL1        0.0185
     27 C         141.9205  137.8748  161.1133 C.3     1  UNL1        0.0687
     28 N         142.6988  137.7257  162.3869 N.3     1  UNL1       -0.2945
     29 H         143.2650  136.8830  162.2890 H       1  UNL1        0.1234
     30 C         143.6235  138.8192  162.8331 C.3     1  UNL1        0.1140
     31 C         144.4283  139.8772  162.1382 C.3     1  UNL1        0.1604
     32 O         144.9312  140.3657  163.4643 O.3     1  UNL1       -0.3508
     33 C         144.1264  139.3077  164.1592 C.3     1  UNL1        0.1604
@<TRIPOS>BOND
     1    13    14   ar
     2    14    15   ar
     3    15    16   ar
     4    16    17   ar
     5    17    18   ar
     6    17    19    1
     7    19    20    1
     8    20    21    1
     9    21    12    1
    10    12     1    1
    11     1    24    1
    12    24    25    1
    13    25    26    1
    14    26    27    1
    15    27    28    1
    16    28    30    1
    17    30    31    1
    18    31    32    1
    19    32    33    1
    20     2     1    1
    21     2     3    1
    22     3     4    1
    23     4     5    1
    24     5     6    1
    25     6     7   ar
    26     7     8   ar
    27     8     9   ar
    28     9    10   ar
    29    10    11   ar
    30    21    22    1
    31    18    13   ar
    32    33    30    1
    33    11     2    1
    34    22    16    1
    35    11     6   ar
    36    20    23    1
    37    28    29    1
