@<TRIPOS>MOLECULE
*****
 33 36 0 0 0
SMALL
GASTEIGER

@<TRIPOS>ATOM
      1 N         143.1270  141.3542  164.1828 N.3     1  UNL1       -0.2647
      2 C         142.5808  142.3776  163.2318 C.3     1  UNL1        0.1037
      3 C         141.9984  141.9458  161.9188 C.3     1  UNL1        0.1470
      4 C         141.4159  141.5141  160.6056 C.3     1  UNL1        0.1035
      5 N         141.3796  140.0589  160.2434 N.3     1  UNL1       -0.2673
      6 C         141.9259  139.0355  161.1944 C.3     1  UNL1        0.1035
      7 C         142.5083  139.4673  162.5075 C.3     1  UNL1        0.1470
      8 C         143.0908  139.8991  163.8206 C.3     1  UNL1        0.1037
      9 O         141.9621  140.4906  161.5566 O.3     1  UNL1       -0.3530
     10 C         143.7095  141.7860  165.4960 C.3     1  UNL1        0.0993
     11 C         140.9961  142.7288  168.9598 C.ar    1  UNL1        0.0684
     12 C         140.4294  142.5980  167.5772 C.ar    1  UNL1        0.0100
     13 C         141.3339  142.2837  166.4225 C.ar    1  UNL1       -0.0022
     14 C         142.8050  142.1003  166.6505 C.ar    1  UNL1       -0.0061
     15 C         143.3717  142.2312  168.0333 C.ar    1  UNL1       -0.0022
     16 C         142.4673  142.5454  169.1878 C.ar    1  UNL1        0.0100
     17 N         139.1871  143.3574  171.2691 N.1     1  UNL1       -0.1908
     18 C         140.0916  143.0431  170.1144 C.1     1  UNL1        0.1004
     19 C         140.7972  139.6271  158.9303 C.3     1  UNL1        0.0913
     20 C         139.5272  138.8295  158.8992 C.3     1  UNL1        0.1087
     21 N         138.3333  139.2894  159.6822 N.3     1  UNL1       -0.1780
     22 H         137.5585  138.6785  159.4236 H       1  UNL1        0.1488
     23 S         138.3837  139.3141  161.1811 S.O2    1  UNL1        0.0603
     24 O         138.7094  137.8500  161.1943 O.2     1  UNL1       -0.1530
     25 O         138.0579  140.7782  161.1679 O.2     1  UNL1       -0.1530
     26 C         138.4340  139.3388  162.6801 C.ar    1  UNL1        0.1220
     27 C         138.8092  138.1002  163.4384 C.ar    1  UNL1        0.0206
     28 C         138.8596  138.1249  164.9374 C.ar    1  UNL1        0.0116
     29 C         138.5348  139.3882  165.6779 C.ar    1  UNL1        0.0685
     30 C         138.1596  140.6268  164.9196 C.ar    1  UNL1        0.0116
     31 C         138.1092  140.6021  163.4207 C.ar    1  UNL1        0.0206
     32 C         138.5852  139.4130  167.1769 C.1     1  UNL1        0.1004
     33 N         138.6355  139.4378  168.6758 N.1     1  UNL1       -0.1908
@<TRIPOS>BOND
     1    17    18    3
     2    18    11    1
     3    11    12   ar
     4    12    13   ar
     5    13    14   ar
     6    14    10    1
     7    10     1    1
     8     1     2    1
     9     2     3    1
    10     3     4    1
    11     4     5    1
    12     5    19    1
    13    19    20    1
    14    20    21    1
    15    21    23    1
    16    23    24    2
    17    23    25    2
    18    23    26    1
    19    26    27   ar
    20    27    28   ar
    21    28    29   ar
    22    29    32    1
    23    32    33    3
    24    29    30   ar
    25    30    31   ar
    26     5     6    1
    27     6     7    1
    28     7     8    1
    29     7     9    1
    30    14    15   ar
    31    15    16   ar
    32    16    11   ar
    33     8     1    1
    34     9     3    1
    35    31    26   ar
    36    21    22    1
@<TRIPOS>MOLECULE
*****
 33 36 0 0 0
SMALL
GASTEIGER

@<TRIPOS>ATOM
      1 N         142.8970  141.4159  164.1190 N.3     1  UNL1       -0.2647
      2 C         142.3521  140.0192  164.1674 C.3     1  UNL1        0.1037
      3 C         141.7537  139.4047  162.9369 C.3     1  UNL1        0.1470
      4 C         141.1552  138.7900  161.7063 C.3     1  UNL1        0.1035
      5 N         141.1016  139.5722  160.4275 N.3     1  UNL1       -0.2673
      6 C         141.6465  140.9689  160.3792 C.3     1  UNL1        0.1035
      7 C         142.2449  141.5835  161.6097 C.3     1  UNL1        0.1470
      8 C         142.8434  142.1980  162.8402 C.3     1  UNL1        0.1037
      9 O         141.7001  140.1868  161.6580 O.3     1  UNL1       -0.3530
     10 C         143.4955  142.0305  165.3496 C.3     1  UNL1        0.0993
     11 C         140.9225  142.7969  168.9610 C.ar    1  UNL1        0.0684
     12 C         142.3763  142.4698  169.1317 C.ar    1  UNL1        0.0100
     13 C         143.2341  142.2143  167.9279 C.ar    1  UNL1       -0.0022
     14 C         142.6378  142.2860  166.5533 C.ar    1  UNL1       -0.0061
     15 C         141.1839  142.6131  166.3826 C.ar    1  UNL1       -0.0022
     16 C         140.3262  142.8686  167.5864 C.ar    1  UNL1        0.0100
     17 N         139.2071  143.3079  171.3686 N.1     1  UNL1       -0.1908
     18 C         140.0648  143.0524  170.1647 C.1     1  UNL1        0.1004
     19 C         140.5031  138.9576  159.1970 C.3     1  UNL1        0.0913
     20 C         139.2727  139.5561  158.5823 C.3     1  UNL1        0.1087
     21 N         138.0369  139.7465  159.4109 N.3     1  UNL1       -0.1780
     22 H         137.7936  138.8319  159.7912 H       1  UNL1        0.1488
     23 S         138.0476  140.7060  160.5638 S.O2    1  UNL1        0.0603
     24 O         138.3331  141.8365  159.6203 O.2     1  UNL1       -0.1530
     25 O         137.7620  139.5754  161.5073 O.2     1  UNL1       -0.1530
     26 C         138.0581  141.6654  161.7168 C.ar    1  UNL1        0.1220
     27 C         138.4509  143.0965  161.4981 C.ar    1  UNL1        0.0206
     28 C         138.4615  144.0559  162.6510 C.ar    1  UNL1        0.0116
     29 C         138.0794  143.5843  164.0227 C.ar    1  UNL1        0.0685
     30 C         137.6866  142.1533  164.2414 C.ar    1  UNL1        0.0116
     31 C         137.6760  141.1938  163.0885 C.ar    1  UNL1        0.0206
     32 C         138.0900  144.5438  165.1757 C.1     1  UNL1        0.1004
     33 N         138.1006  145.5032  166.3287 N.1     1  UNL1       -0.1908
@<TRIPOS>BOND
     1    17    18    3
     2    18    11    1
     3    11    12   ar
     4    12    13   ar
     5    13    14   ar
     6    14    10    1
     7    10     1    1
     8     1     2    1
     9     2     3    1
    10     3     4    1
    11     4     5    1
    12     5    19    1
    13    19    20    1
    14    20    21    1
    15    21    23    1
    16    23    24    2
    17    23    25    2
    18    23    26    1
    19    26    27   ar
    20    27    28   ar
    21    28    29   ar
    22    29    32    1
    23    32    33    3
    24    29    30   ar
    25    30    31   ar
    26     5     6    1
    27     6     7    1
    28     7     8    1
    29     7     9    1
    30    14    15   ar
    31    15    16   ar
    32    16    11   ar
    33     8     1    1
    34     9     3    1
    35    31    26   ar
    36    21    22    1
@<TRIPOS>MOLECULE
*****
 33 36 0 0 0
SMALL
GASTEIGER

@<TRIPOS>ATOM
      1 N         142.3307  139.4377  165.2774 N.3     1  UNL1       -0.2647
      2 C         141.4512  138.2545  165.0013 C.3     1  UNL1        0.1037
      3 C         140.9789  137.9809  163.6042 C.3     1  UNL1        0.1470
      4 C         140.5065  137.7072  162.2070 C.3     1  UNL1        0.1035
      5 N         140.9136  138.6169  161.0860 N.3     1  UNL1       -0.2673
      6 C         141.7931  139.8003  161.3622 C.3     1  UNL1        0.1035
      7 C         142.2655  140.0739  162.7593 C.3     1  UNL1        0.1470
      8 C         142.7378  140.3474  164.1564 C.3     1  UNL1        0.1037
      9 O         141.3860  138.8906  162.4832 O.3     1  UNL1       -0.3530
     10 C         142.8031  139.7114  166.6746 C.3     1  UNL1        0.0993
     11 C         140.9454  143.0396  169.0666 C.ar    1  UNL1        0.0684
     12 C         142.2827  142.4876  169.4624 C.ar    1  UNL1        0.0100
     13 C         142.9020  141.3782  168.6651 C.ar    1  UNL1       -0.0022
     14 C         142.1839  140.8208  167.4719 C.ar    1  UNL1       -0.0061
     15 C         140.8464  141.3728  167.0761 C.ar    1  UNL1       -0.0022
     16 C         140.2272  142.4822  167.8734 C.ar    1  UNL1        0.0100
     17 N         139.7069  145.2585  170.6612 N.1     1  UNL1       -0.1908
     18 C         140.3261  144.1490  169.8639 C.1     1  UNL1        0.1004
     19 C         140.4412  138.3434  159.6889 C.3     1  UNL1        0.0913
     20 C         139.3365  139.1668  159.0959 C.3     1  UNL1        0.1087
     21 N         138.0807  139.4120  159.8787 N.3     1  UNL1       -0.1780
     22 H         137.8254  138.5243  160.3113 H       1  UNL1        0.1488
     23 S         138.0647  140.4444  160.9667 S.O2    1  UNL1        0.0603
     24 O         137.5565  139.4170  161.9342 O.2     1  UNL1       -0.1530
     25 O         138.5729  141.4718  159.9993 O.2     1  UNL1       -0.1530
     26 C         138.0487  141.4769  162.0548 C.ar    1  UNL1        0.1220
     27 C         138.0872  141.0518  163.4927 C.ar    1  UNL1        0.0206
     28 C         138.0712  142.0842  164.5807 C.ar    1  UNL1        0.0116
     29 C         138.0168  143.5417  164.2308 C.ar    1  UNL1        0.0685
     30 C         137.9783  143.9669  162.7928 C.ar    1  UNL1        0.0116
     31 C         137.9943  142.9345  161.7048 C.ar    1  UNL1        0.0206
     32 C         138.0008  144.5742  165.3188 C.1     1  UNL1        0.1004
     33 N         137.9848  145.6067  166.4068 N.1     1  UNL1       -0.1908
@<TRIPOS>BOND
     1    17    18    3
     2    18    11    1
     3    11    12   ar
     4    12    13   ar
     5    13    14   ar
     6    14    10    1
     7    10     1    1
     8     1     2    1
     9     2     3    1
    10     3     4    1
    11     4     5    1
    12     5    19    1
    13    19    20    1
    14    20    21    1
    15    21    23    1
    16    23    24    2
    17    23    25    2
    18    23    26    1
    19    26    27   ar
    20    27    28   ar
    21    28    29   ar
    22    29    32    1
    23    32    33    3
    24    29    30   ar
    25    30    31   ar
    26     5     6    1
    27     6     7    1
    28     7     8    1
    29     7     9    1
    30    14    15   ar
    31    15    16   ar
    32    16    11   ar
    33     8     1    1
    34     9     3    1
    35    31    26   ar
    36    21    22    1
@<TRIPOS>MOLECULE
*****
 33 36 0 0 0
SMALL
GASTEIGER

@<TRIPOS>ATOM
      1 N         143.1130  142.0844  165.2865 N.3     1  UNL1       -0.2647
      2 C         142.1859  142.6368  164.2448 C.3     1  UNL1        0.1037
      3 C         142.3524  142.2419  162.8073 C.3     1  UNL1        0.1470
      4 C         142.5189  141.8471  161.3698 C.3     1  UNL1        0.1035
      5 N         143.6126  140.8999  160.9740 N.3     1  UNL1       -0.2673
      6 C         144.5398  140.3476  162.0158 C.3     1  UNL1        0.1035
      7 C         144.3733  140.7424  163.4533 C.3     1  UNL1        0.1470
      8 C         144.2068  141.1372  164.8907 C.3     1  UNL1        0.1037
      9 O         143.4461  141.2948  162.4116 O.3     1  UNL1       -0.3530
     10 C         142.9465  142.4792  166.7240 C.3     1  UNL1        0.0993
     11 C         139.6157  140.7033  169.1739 C.ar    1  UNL1        0.0684
     12 C         140.1874  139.9371  168.0180 C.ar    1  UNL1        0.0100
     13 C         141.2977  140.5290  167.2014 C.ar    1  UNL1       -0.0022
     14 C         141.8363  141.8873  167.5406 C.ar    1  UNL1       -0.0061
     15 C         141.2646  142.6535  168.6965 C.ar    1  UNL1       -0.0022
     16 C         140.1543  142.0616  169.5131 C.ar    1  UNL1        0.0100
     17 N         137.3951  139.5193  170.8070 N.1     1  UNL1       -0.1908
     18 C         138.5054  140.1114  169.9904 C.1     1  UNL1        0.1004
     19 C         143.7792  140.5051  159.5365 C.3     1  UNL1        0.0913
     20 C         142.9370  139.4069  158.9580 C.3     1  UNL1        0.1087
     21 N         142.7955  138.1053  159.6900 N.3     1  UNL1       -0.1780
     22 H         143.7327  137.8282  159.9817 H       1  UNL1        0.1488
     23 S         141.9206  138.0197  160.9054 S.O2    1  UNL1        0.0603
     24 O         140.7604  138.5352  160.1066 O.2     1  UNL1       -0.1530
     25 O         143.0808  137.5043  161.7042 O.2     1  UNL1       -0.1530
     26 C         141.0457  137.9341  162.1209 C.ar    1  UNL1        0.1220
     27 C         139.5532  137.9645  161.9743 C.ar    1  UNL1        0.0206
     28 C         138.6784  137.8788  163.1897 C.ar    1  UNL1        0.0116
     29 C         139.2960  137.7629  164.5517 C.ar    1  UNL1        0.0685
     30 C         140.7885  137.7326  164.6983 C.ar    1  UNL1        0.0116
     31 C         141.6634  137.8182  163.4829 C.ar    1  UNL1        0.0206
     32 C         138.4211  137.6773  165.7672 C.1     1  UNL1        0.1004
     33 N         137.5463  137.5916  166.9826 N.1     1  UNL1       -0.1908
@<TRIPOS>BOND
     1    17    18    3
     2    18    11    1
     3    11    12   ar
     4    12    13   ar
     5    13    14   ar
     6    14    10    1
     7    10     1    1
     8     1     2    1
     9     2     3    1
    10     3     4    1
    11     4     5    1
    12     5    19    1
    13    19    20    1
    14    20    21    1
    15    21    23    1
    16    23    24    2
    17    23    25    2
    18    23    26    1
    19    26    27   ar
    20    27    28   ar
    21    28    29   ar
    22    29    32    1
    23    32    33    3
    24    29    30   ar
    25    30    31   ar
    26     5     6    1
    27     6     7    1
    28     7     8    1
    29     7     9    1
    30    14    15   ar
    31    15    16   ar
    32    16    11   ar
    33     8     1    1
    34     9     3    1
    35    31    26   ar
    36    21    22    1
@<TRIPOS>MOLECULE
*****
 33 36 0 0 0
SMALL
GASTEIGER

@<TRIPOS>ATOM
      1 N         143.1335  143.0049  164.5328 N.3     1  UNL1       -0.2647
      2 C         142.4633  144.2941  164.1605 C.3     1  UNL1        0.1037
      3 C         141.9091  144.4796  162.7791 C.3     1  UNL1        0.1470
      4 C         141.3548  144.6652  161.3976 C.3     1  UNL1        0.1035
      5 N         141.4708  143.5615  160.3885 N.3     1  UNL1       -0.2673
      6 C         142.1410  142.2722  160.7609 C.3     1  UNL1        0.1035
      7 C         142.6952  142.0866  162.1423 C.3     1  UNL1        0.1470
      8 C         143.2494  141.9011  163.5237 C.3     1  UNL1        0.1037
      9 O         142.0250  143.3759  161.7700 O.3     1  UNL1       -0.3530
     10 C         143.6877  142.8193  165.9143 C.3     1  UNL1        0.0993
     11 C         141.1928  140.8380  169.0924 C.ar    1  UNL1        0.0684
     12 C         140.7785  140.7546  167.6532 C.ar    1  UNL1        0.0100
     13 C         141.6102  141.4150  166.5938 C.ar    1  UNL1       -0.0022
     14 C         142.8561  142.1589  166.9736 C.ar    1  UNL1       -0.0061
     15 C         143.2704  142.2423  168.4129 C.ar    1  UNL1       -0.0022
     16 C         142.4388  141.5818  169.4722 C.ar    1  UNL1        0.0100
     17 N         139.5295  139.5171  171.2110 N.1     1  UNL1       -0.1908
     18 C         140.3612  140.1776  170.1517 C.1     1  UNL1        0.1004
     19 C         140.9165  143.7470  159.0071 C.3     1  UNL1        0.0913
     20 C         139.7350  142.9392  158.5582 C.3     1  UNL1        0.1087
     21 N         138.4631  142.9651  159.3530 N.3     1  UNL1       -0.1780
     22 H         137.7341  142.5766  158.7548 H       1  UNL1        0.1488
     23 S         138.3820  142.2379  160.6624 S.O2    1  UNL1        0.0603
     24 O         138.8107  140.9702  159.9849 O.2     1  UNL1       -0.1530
     25 O         137.9533  143.5056  161.3399 O.2     1  UNL1       -0.1530
     26 C         138.3009  141.5107  161.9719 C.ar    1  UNL1        0.1220
     27 C         138.4342  140.0171  162.0098 C.ar    1  UNL1        0.0206
     28 C         138.3531  139.2899  163.3191 C.ar    1  UNL1        0.0116
     29 C         138.1387  140.0562  164.5906 C.ar    1  UNL1        0.0685
     30 C         138.0054  141.5498  164.5527 C.ar    1  UNL1        0.0116
     31 C         138.0865  142.2770  163.2433 C.ar    1  UNL1        0.0206
     32 C         138.0576  139.3290  165.9001 C.1     1  UNL1        0.1004
     33 N         137.9764  138.6019  167.2095 N.1     1  UNL1       -0.1908
@<TRIPOS>BOND
     1    17    18    3
     2    18    11    1
     3    11    12   ar
     4    12    13   ar
     5    13    14   ar
     6    14    10    1
     7    10     1    1
     8     1     2    1
     9     2     3    1
    10     3     4    1
    11     4     5    1
    12     5    19    1
    13    19    20    1
    14    20    21    1
    15    21    23    1
    16    23    24    2
    17    23    25    2
    18    23    26    1
    19    26    27   ar
    20    27    28   ar
    21    28    29   ar
    22    29    32    1
    23    32    33    3
    24    29    30   ar
    25    30    31   ar
    26     5     6    1
    27     6     7    1
    28     7     8    1
    29     7     9    1
    30    14    15   ar
    31    15    16   ar
    32    16    11   ar
    33     8     1    1
    34     9     3    1
    35    31    26   ar
    36    21    22    1
@<TRIPOS>MOLECULE
*****
 33 36 0 0 0
SMALL
GASTEIGER

@<TRIPOS>ATOM
      1 N         138.9918  139.1821  164.4188 N.3     1  UNL1       -0.2647
      2 C         138.3086  139.8156  163.2432 C.3     1  UNL1        0.1037
      3 C         138.8474  139.6044  161.8594 C.3     1  UNL1        0.1470
      4 C         139.3861  139.3931  160.4754 C.3     1  UNL1        0.1035
      5 N         140.6080  138.5484  160.2671 N.3     1  UNL1       -0.2673
      6 C         141.2912  137.9149  161.4428 C.3     1  UNL1        0.1035
      7 C         140.7524  138.1262  162.8266 C.3     1  UNL1        0.1470
      8 C         140.2137  138.3374  164.2105 C.3     1  UNL1        0.1037
      9 O         140.0693  138.7596  161.6511 O.3     1  UNL1       -0.3530
     10 C         138.4531  139.3933  165.8027 C.3     1  UNL1        0.0993
     11 C         140.7249  141.9382  168.7374 C.ar    1  UNL1        0.0684
     12 C         139.9869  140.7221  169.2133 C.ar    1  UNL1        0.0100
     13 C         139.2296  139.8738  168.2350 C.ar    1  UNL1       -0.0022
     14 C         139.2103  140.2416  166.7810 C.ar    1  UNL1       -0.0061
     15 C         139.9484  141.4578  166.3051 C.ar    1  UNL1       -0.0022
     16 C         140.7056  142.3060  167.2834 C.ar    1  UNL1        0.0100
     17 N         142.2394  143.6348  170.6939 N.1     1  UNL1       -0.1908
     18 C         141.4821  142.7865  169.7157 C.1     1  UNL1        0.1004
     19 C         141.1467  138.3372  158.8833 C.3     1  UNL1        0.0913
     20 C         142.6146  138.1073  158.6769 C.3     1  UNL1        0.1087
     21 N         143.5568  139.2734  158.6276 N.3     1  UNL1       -0.1780
     22 H         143.1872  139.9213  157.9318 H       1  UNL1        0.1488
     23 S         143.8235  140.0749  159.8671 S.O2    1  UNL1        0.0603
     24 O         143.2240  141.2848  159.2138 O.2     1  UNL1       -0.1530
     25 O         144.4230  138.8651  160.5204 O.2     1  UNL1       -0.1530
     26 C         144.0903  140.8764  161.1067 C.ar    1  UNL1        0.1220
     27 C         144.0542  142.3750  161.0530 C.ar    1  UNL1        0.0206
     28 C         144.3209  143.1765  162.2925 C.ar    1  UNL1        0.0116
     29 C         144.6238  142.4794  163.5857 C.ar    1  UNL1        0.0685
     30 C         144.6598  140.9808  163.6393 C.ar    1  UNL1        0.0116
     31 C         144.3931  140.1793  162.3998 C.ar    1  UNL1        0.0206
     32 C         144.8905  143.2809  164.8253 C.1     1  UNL1        0.1004
     33 N         145.1573  144.0824  166.0648 N.1     1  UNL1       -0.1908
@<TRIPOS>BOND
     1    17    18    3
     2    18    11    1
     3    11    12   ar
     4    12    13   ar
     5    13    14   ar
     6    14    10    1
     7    10     1    1
     8     1     2    1
     9     2     3    1
    10     3     4    1
    11     4     5    1
    12     5    19    1
    13    19    20    1
    14    20    21    1
    15    21    23    1
    16    23    24    2
    17    23    25    2
    18    23    26    1
    19    26    27   ar
    20    27    28   ar
    21    28    29   ar
    22    29    32    1
    23    32    33    3
    24    29    30   ar
    25    30    31   ar
    26     5     6    1
    27     6     7    1
    28     7     8    1
    29     7     9    1
    30    14    15   ar
    31    15    16   ar
    32    16    11   ar
    33     8     1    1
    34     9     3    1
    35    31    26   ar
    36    21    22    1
@<TRIPOS>MOLECULE
*****
 33 36 0 0 0
SMALL
GASTEIGER

@<TRIPOS>ATOM
      1 N         139.3279  140.1990  164.3280 N.3     1  UNL1       -0.2647
      2 C         138.2884  141.2599  164.1191 C.3     1  UNL1        0.1037
      3 C         138.0696  141.8366  162.7518 C.3     1  UNL1        0.1470
      4 C         137.8508  142.4133  161.3844 C.3     1  UNL1        0.1035
      5 N         138.6716  141.9291  160.2261 N.3     1  UNL1       -0.2673
      6 C         139.7112  140.8681  160.4351 C.3     1  UNL1        0.1035
      7 C         139.9300  140.2914  161.8023 C.3     1  UNL1        0.1470
      8 C         140.1487  139.7147  163.1696 C.3     1  UNL1        0.1037
      9 O         138.8904  141.3523  161.5934 O.3     1  UNL1       -0.3530
     10 C         139.5467  139.6223  165.6953 C.3     1  UNL1        0.0993
     11 C         141.6431  142.0493  168.8520 C.ar    1  UNL1        0.0684
     12 C         140.4978  141.1573  169.2294 C.ar    1  UNL1        0.0100
     13 C         139.7990  140.3482  168.1771 C.ar    1  UNL1       -0.0022
     14 C         140.2455  140.4313  166.7475 C.ar    1  UNL1       -0.0061
     15 C         141.3909  141.3234  166.3702 C.ar    1  UNL1       -0.0022
     16 C         142.0896  142.1324  167.4224 C.ar    1  UNL1        0.0100
     17 N         143.0407  143.6674  170.9564 N.1     1  UNL1       -0.1908
     18 C         142.3419  142.8584  169.9042 C.1     1  UNL1        0.1004
     19 C         138.4529  142.5058  158.8588 C.3     1  UNL1        0.0913
     20 C         139.4627  143.4466  158.2712 C.3     1  UNL1        0.1087
     21 N         139.8657  144.6798  159.0239 N.3     1  UNL1       -0.1780
     22 H         139.0048  145.1273  159.3384 H       1  UNL1        0.1488
     23 S         140.7589  144.5678  160.2237 S.O2    1  UNL1        0.0603
     24 O         139.7621  145.3383  161.0377 O.2     1  UNL1       -0.1530
     25 O         141.7557  143.7972  159.4097 O.2     1  UNL1       -0.1530
     26 C         141.6522  144.4557  161.4236 C.ar    1  UNL1        0.1220
     27 C         141.2655  145.1208  162.7112 C.ar    1  UNL1        0.0206
     28 C         142.1586  145.0087  163.9111 C.ar    1  UNL1        0.0116
     29 C         143.4385  144.2315  163.8232 C.ar    1  UNL1        0.0685
     30 C         143.8253  143.5664  162.5356 C.ar    1  UNL1        0.0116
     31 C         142.9321  143.6785  161.3358 C.ar    1  UNL1        0.0206
     32 C         144.3318  144.1194  165.0231 C.1     1  UNL1        0.1004
     33 N         145.2250  144.0074  166.2229 N.1     1  UNL1       -0.1908
@<TRIPOS>BOND
     1    17    18    3
     2    18    11    1
     3    11    12   ar
     4    12    13   ar
     5    13    14   ar
     6    14    10    1
     7    10     1    1
     8     1     2    1
     9     2     3    1
    10     3     4    1
    11     4     5    1
    12     5    19    1
    13    19    20    1
    14    20    21    1
    15    21    23    1
    16    23    24    2
    17    23    25    2
    18    23    26    1
    19    26    27   ar
    20    27    28   ar
    21    28    29   ar
    22    29    32    1
    23    32    33    3
    24    29    30   ar
    25    30    31   ar
    26     5     6    1
    27     6     7    1
    28     7     8    1
    29     7     9    1
    30    14    15   ar
    31    15    16   ar
    32    16    11   ar
    33     8     1    1
    34     9     3    1
    35    31    26   ar
    36    21    22    1
@<TRIPOS>MOLECULE
*****
 33 36 0 0 0
SMALL
GASTEIGER

@<TRIPOS>ATOM
      1 N         139.3854  139.4364  162.4913 N.3     1  UNL1       -0.2647
      2 C         140.6608  139.6416  161.7291 C.3     1  UNL1        0.1037
      3 C         140.7196  140.6547  160.6244 C.3     1  UNL1        0.1470
      4 C         140.7785  141.6678  159.5198 C.3     1  UNL1        0.1035
      5 N         139.5618  142.4756  159.1774 N.3     1  UNL1       -0.2673
      6 C         138.2863  142.2703  159.9397 C.3     1  UNL1        0.1035
      7 C         138.2275  141.2573  161.0443 C.3     1  UNL1        0.1470
      8 C         138.1687  140.2442  162.1490 C.3     1  UNL1        0.1037
      9 O         139.5030  141.4625  160.2821 O.3     1  UNL1       -0.3530
     10 C         139.3265  138.4233  163.5960 C.3     1  UNL1        0.0993
     11 C         139.3518  139.7716  167.8892 C.ar    1  UNL1        0.0684
     12 C         140.5515  140.0104  167.0210 C.ar    1  UNL1        0.0100
     13 C         140.5431  139.5610  165.5899 C.ar    1  UNL1       -0.0022
     14 C         139.3349  138.8728  165.0270 C.ar    1  UNL1       -0.0061
     15 C         138.1352  138.6340  165.8953 C.ar    1  UNL1       -0.0022
     16 C         138.1437  139.0834  167.3263 C.ar    1  UNL1        0.0100
     17 N         139.3688  140.6706  170.7513 N.1     1  UNL1       -0.1908
     18 C         139.3603  140.2211  169.3202 C.1     1  UNL1        0.1004
     19 C         139.6207  143.4886  158.0728 C.3     1  UNL1        0.0913
     20 C         140.2722  144.8190  158.3090 C.3     1  UNL1        0.1087
     21 N         140.0363  145.5515  159.5965 N.3     1  UNL1       -0.1780
     22 H         139.0256  145.6217  159.7145 H       1  UNL1        0.1488
     23 S         140.5854  145.0058  160.8813 S.O2    1  UNL1        0.0603
     24 O         139.2255  145.1082  161.5060 O.2     1  UNL1       -0.1530
     25 O         141.9452  144.9034  160.2567 O.2     1  UNL1       -0.1530
     26 C         141.1345  144.4601  162.1661 C.ar    1  UNL1        0.1220
     27 C         142.5321  144.8024  162.5899 C.ar    1  UNL1        0.0206
     28 C         143.0812  144.2568  163.8746 C.ar    1  UNL1        0.0116
     29 C         142.2327  143.3687  164.7356 C.ar    1  UNL1        0.0685
     30 C         140.8352  143.0263  164.3119 C.ar    1  UNL1        0.0116
     31 C         140.2860  143.5720  163.0272 C.ar    1  UNL1        0.0206
     32 C         142.7819  142.8229  166.0205 C.1     1  UNL1        0.1004
     33 N         143.3309  142.2772  167.3052 N.1     1  UNL1       -0.1908
@<TRIPOS>BOND
     1    17    18    3
     2    18    11    1
     3    11    12   ar
     4    12    13   ar
     5    13    14   ar
     6    14    10    1
     7    10     1    1
     8     1     2    1
     9     2     3    1
    10     3     4    1
    11     4     5    1
    12     5    19    1
    13    19    20    1
    14    20    21    1
    15    21    23    1
    16    23    24    2
    17    23    25    2
    18    23    26    1
    19    26    27   ar
    20    27    28   ar
    21    28    29   ar
    22    29    32    1
    23    32    33    3
    24    29    30   ar
    25    30    31   ar
    26     5     6    1
    27     6     7    1
    28     7     8    1
    29     7     9    1
    30    14    15   ar
    31    15    16   ar
    32    16    11   ar
    33     8     1    1
    34     9     3    1
    35    31    26   ar
    36    21    22    1
@<TRIPOS>MOLECULE
*****
 33 36 0 0 0
SMALL
GASTEIGER

@<TRIPOS>ATOM
      1 N         143.7293  139.5153  164.1318 N.3     1  UNL1       -0.2647
      2 C         144.1515  140.9539  164.1760 C.3     1  UNL1        0.1037
      3 C         144.3177  141.7262  162.9009 C.3     1  UNL1        0.1470
      4 C         144.4839  142.4986  161.6257 C.3     1  UNL1        0.1035
      5 N         144.2280  141.8322  160.3065 N.3     1  UNL1       -0.2673
      6 C         143.8058  140.3935  160.2624 C.3     1  UNL1        0.1035
      7 C         143.6396  139.6212  161.5374 C.3     1  UNL1        0.1470
      8 C         143.4733  138.8489  162.8125 C.3     1  UNL1        0.1037
      9 O         144.0617  141.0598  161.5816 O.3     1  UNL1       -0.3530
     10 C         143.5630  138.7429  165.4069 C.3     1  UNL1        0.0993
     11 C         140.4620  140.0047  168.4139 C.ar    1  UNL1        0.0684
     12 C         140.0993  139.8977  166.9623 C.ar    1  UNL1        0.0100
     13 C         141.1330  139.4771  165.9600 C.ar    1  UNL1       -0.0022
     14 C         142.5294  139.1635  166.4092 C.ar    1  UNL1       -0.0061
     15 C         142.8921  139.2705  167.8608 C.ar    1  UNL1       -0.0022
     16 C         141.8584  139.6911  168.8631 C.ar    1  UNL1        0.0100
     17 N         138.3947  140.8459  170.4185 N.1     1  UNL1       -0.1908
     18 C         139.4284  140.4253  169.4161 C.1     1  UNL1        0.1004
     19 C         144.3942  142.6045  159.0314 C.3     1  UNL1        0.0913
     20 C         143.3374  142.5348  157.9691 C.3     1  UNL1        0.1087
     21 N         142.1413  143.4371  158.0408 N.3     1  UNL1       -0.1780
     22 H         141.4170  143.0125  157.4615 H       1  UNL1        0.1488
     23 S         141.5110  143.7430  159.3671 S.O2    1  UNL1        0.0603
     24 O         142.0554  145.1392  159.3038 O.2     1  UNL1       -0.1530
     25 O         140.9667  142.3467  159.4304 O.2     1  UNL1       -0.1530
     26 C         140.8807  144.0488  160.6935 C.ar    1  UNL1        0.1220
     27 C         140.7447  142.9692  161.7259 C.ar    1  UNL1        0.0206
     28 C         140.1144  143.2750  163.0523 C.ar    1  UNL1        0.0116
     29 C         139.6201  144.6603  163.3461 C.ar    1  UNL1        0.0685
     30 C         139.7561  145.7399  162.3136 C.ar    1  UNL1        0.0116
     31 C         140.3864  145.4341  160.9873 C.ar    1  UNL1        0.0206
     32 C         138.9898  144.9661  164.6725 C.1     1  UNL1        0.1004
     33 N         138.3595  145.2720  165.9988 N.1     1  UNL1       -0.1908
@<TRIPOS>BOND
     1    17    18    3
     2    18    11    1
     3    11    12   ar
     4    12    13   ar
     5    13    14   ar
     6    14    10    1
     7    10     1    1
     8     1     2    1
     9     2     3    1
    10     3     4    1
    11     4     5    1
    12     5    19    1
    13    19    20    1
    14    20    21    1
    15    21    23    1
    16    23    24    2
    17    23    25    2
    18    23    26    1
    19    26    27   ar
    20    27    28   ar
    21    28    29   ar
    22    29    32    1
    23    32    33    3
    24    29    30   ar
    25    30    31   ar
    26     5     6    1
    27     6     7    1
    28     7     8    1
    29     7     9    1
    30    14    15   ar
    31    15    16   ar
    32    16    11   ar
    33     8     1    1
    34     9     3    1
    35    31    26   ar
    36    21    22    1
