@<TRIPOS>MOLECULE
*****
 32 35 0 0 0
SMALL
GASTEIGER

@<TRIPOS>ATOM
      1 N         139.6943  140.5019  165.0584 N.pl3   1  UNL1       -0.2740
      2 C         139.0222  140.3037  166.3847 C.3     1  UNL1        0.1079
      3 C         140.0549  140.4794  167.4583 C.3     1  UNL1        0.1494
      4 C         139.9714  140.3997  168.9538 C.2     1  UNL1        0.2919
      5 O         138.6611  140.0930  169.6167 O.2     1  UNL1       -0.2563
      6 N         141.1982  140.6268  169.7866 N.am    1  UNL1       -0.1449
      7 C         141.1147  140.5471  171.2823 C.3     1  UNL1        0.2159
      8 C         142.5083  140.9335  169.1239 C.2     1  UNL1        0.3728
      9 N         143.7351  141.1605  169.9567 N.2     1  UNL1       -0.1329
     10 N         142.5918  141.0132  167.6284 N.pl3   1  UNL1       -0.2251
     11 C         141.3651  140.7862  166.7956 C.3     1  UNL1        0.1526
     12 C         141.1422  140.8000  165.3123 C.3     1  UNL1        0.1323
     13 H         143.6804  141.1082  170.9383 H       1  UNL1        0.3058
     14 H         143.4518  141.2145  167.1934 H       1  UNL1        0.2454
     15 C         138.2670  141.5550  161.5081 C.ar    1  UNL1        0.2569
     16 N         138.9270  141.6400  162.8524 N.ar    1  UNL1       -0.1768
     17 C         139.0342  140.4168  163.7141 C.ar    1  UNL1        0.2226
     18 N         138.4813  139.1087  163.2314 N.ar    1  UNL1       -0.2155
     19 C         137.8213  139.0237  161.8871 C.ar    1  UNL1        0.0942
     20 C         137.2684  137.7155  161.4044 C.3     1  UNL1        0.0548
     21 C         137.7141  140.2468  161.0254 C.ar    1  UNL1        0.2065
     22 F         137.0541  140.1618  159.6811 F       1  UNL1       -0.1980
     23 C         138.9696  142.8826  159.3882 C.3     1  UNL1        0.2543
     24 O         138.1599  142.7782  160.6465 O.3     1  UNL1       -0.4545
     25 C         142.5991  141.0823  165.9960 C.ar    1  UNL1        0.0378
     26 C         143.0167  142.5035  165.7598 C.ar    1  UNL1        0.0032
     27 C         144.2508  142.7997  164.9602 C.ar    1  UNL1        0.0296
     28 C         145.0672  141.6746  164.3967 C.ar    1  UNL1        0.1424
     29 F         146.3013  141.9707  163.5970 F       1  UNL1       -0.2041
     30 C         144.6496  140.2534  164.6328 C.ar    1  UNL1        0.0590
     31 C         143.4156  139.9572  165.4324 C.ar    1  UNL1        0.1413
     32 F         142.9980  138.5360  165.6685 F       1  UNL1       -0.2043
@<TRIPOS>BOND
     1    23    24    1
     2    24    15    1
     3    15    16   ar
     4    16    17   ar
     5    17     1    1
     6     1     2    1
     7     3     2    1
     8     3     4    1
     9     4     5    2
    10     4     6   am
    11     6     7    1
    12     6     8    1
    13     8     9    2
    14     8    10    1
    15    10    11    1
    16    11    25    1
    17    25    26   ar
    18    26    27   ar
    19    27    28   ar
    20    28    29    1
    21    28    30   ar
    22    30    31   ar
    23    31    32    1
    24    11    12    1
    25    17    18   ar
    26    18    19   ar
    27    19    20    1
    28    19    21   ar
    29    21    22    1
    30    21    15   ar
    31    12     1    1
    32    11     3    1
    33    31    25   ar
    34     9    13    1
    35    10    14    1
@<TRIPOS>MOLECULE
*****
 32 35 0 0 0
SMALL
GASTEIGER

@<TRIPOS>ATOM
      1 N         140.1364  140.1726  163.4660 N.pl3   1  UNL1       -0.2740
      2 C         139.4272  139.4810  164.5925 C.3     1  UNL1        0.1079
      3 C         139.7237  140.2314  165.8570 C.3     1  UNL1        0.1494
      4 C         139.2964  140.0119  167.2780 C.2     1  UNL1        0.2919
      5 O         138.4039  138.8567  167.6230 O.2     1  UNL1       -0.2563
      6 N         139.7616  140.9478  168.3540 N.am    1  UNL1       -0.1449
      7 C         139.3342  140.7283  169.7751 C.3     1  UNL1        0.2159
      8 C         140.6539  142.1030  168.0091 C.2     1  UNL1        0.3728
      9 N         141.1191  143.0388  169.0852 N.2     1  UNL1       -0.1329
     10 N         141.0813  142.3224  166.5882 N.pl3   1  UNL1       -0.2251
     11 C         140.6162  141.3866  165.5121 C.3     1  UNL1        0.1526
     12 C         140.8712  141.3503  164.0344 C.3     1  UNL1        0.1323
     13 H         140.8387  142.8948  170.0179 H       1  UNL1        0.3058
     14 H         141.6670  143.0806  166.3618 H       1  UNL1        0.2454
     15 C         138.8862  139.6316  159.7384 C.ar    1  UNL1        0.2569
     16 N         138.9081  140.0452  161.1802 N.ar    1  UNL1       -0.1768
     17 C         140.1145  139.7590  162.0243 C.ar    1  UNL1        0.2226
     18 N         141.2991  139.0592  161.4268 N.ar    1  UNL1       -0.2155
     19 C         141.2773  138.6457  159.9851 C.ar    1  UNL1        0.0942
     20 C         142.4619  137.9459  159.3876 C.3     1  UNL1        0.0548
     21 C         140.0708  138.9319  159.1409 C.ar    1  UNL1        0.2065
     22 F         140.0490  138.5183  157.6992 F       1  UNL1       -0.1980
     23 C         137.7441  140.9686  157.8258 C.3     1  UNL1        0.2543
     24 O         137.6798  139.9178  158.8943 O.3     1  UNL1       -0.4545
     25 C         141.5014  142.4923  165.0184 C.ar    1  UNL1        0.0378
     26 C         140.8957  143.7572  164.4863 C.ar    1  UNL1        0.0032
     27 C         141.7810  144.8629  163.9926 C.ar    1  UNL1        0.0296
     28 C         143.2720  144.7036  164.0309 C.ar    1  UNL1        0.1424
     29 F         144.1573  145.8093  163.5371 F       1  UNL1       -0.2041
     30 C         143.8777  143.4387  164.5629 C.ar    1  UNL1        0.0590
     31 C         142.9925  142.3330  165.0567 C.ar    1  UNL1        0.1413
     32 F         143.5982  141.0681  165.5887 F       1  UNL1       -0.2043
@<TRIPOS>BOND
     1    23    24    1
     2    24    15    1
     3    15    16   ar
     4    16    17   ar
     5    17     1    1
     6     1     2    1
     7     3     2    1
     8     3     4    1
     9     4     5    2
    10     4     6   am
    11     6     7    1
    12     6     8    1
    13     8     9    2
    14     8    10    1
    15    10    11    1
    16    11    25    1
    17    25    26   ar
    18    26    27   ar
    19    27    28   ar
    20    28    29    1
    21    28    30   ar
    22    30    31   ar
    23    31    32    1
    24    11    12    1
    25    17    18   ar
    26    18    19   ar
    27    19    20    1
    28    19    21   ar
    29    21    22    1
    30    21    15   ar
    31    12     1    1
    32    11     3    1
    33    31    25   ar
    34     9    13    1
    35    10    14    1
@<TRIPOS>MOLECULE
*****
 32 35 0 0 0
SMALL
GASTEIGER

@<TRIPOS>ATOM
      1 N         140.2224  142.7063  164.9085 N.pl3   1  UNL1       -0.2740
      2 C         140.1498  143.5301  166.1599 C.3     1  UNL1        0.1079
      3 C         140.3264  142.6101  167.3313 C.3     1  UNL1        0.1494
      4 C         140.3452  142.8604  168.8102 C.2     1  UNL1        0.2919
      5 O         140.1634  144.2529  169.3376 O.2     1  UNL1       -0.2563
      6 N         140.5459  141.7182  169.7616 N.am    1  UNL1       -0.1449
      7 C         140.5647  141.9685  171.2406 C.3     1  UNL1        0.2159
      8 C         140.7277  140.3259  169.2343 C.2     1  UNL1        0.3728
      9 N         140.9284  139.1837  170.1857 N.2     1  UNL1       -0.1329
     10 N         140.7089  140.0756  167.7554 N.pl3   1  UNL1       -0.2251
     11 C         140.5083  141.2177  166.8040 C.3     1  UNL1        0.1526
     12 C         140.4440  141.2771  165.3065 C.3     1  UNL1        0.1323
     13 H         140.9407  139.3479  171.1564 H       1  UNL1        0.3058
     14 H         140.8283  139.1617  167.4093 H       1  UNL1        0.2454
     15 C         140.0429  142.7848  160.9446 C.ar    1  UNL1        0.2569
     16 N         140.1696  142.2700  162.3478 N.ar    1  UNL1       -0.1768
     17 C         140.0957  143.2212  163.5053 C.ar    1  UNL1        0.2226
     18 N         139.8952  144.6873  163.2596 N.ar    1  UNL1       -0.2155
     19 C         139.7685  145.2021  161.8564 C.ar    1  UNL1        0.0942
     20 C         139.5680  146.6682  161.6107 C.3     1  UNL1        0.0548
     21 C         139.8424  144.2509  160.6989 C.ar    1  UNL1        0.2065
     22 F         139.7157  144.7658  159.2958 F       1  UNL1       -0.1980
     23 C         139.4419  140.4966  159.8710 C.3     1  UNL1        0.2543
     24 O         140.1168  141.8335  159.7872 O.3     1  UNL1       -0.4545
     25 C         140.6759  139.8868  166.1328 C.ar    1  UNL1        0.0378
     26 C         142.0492  139.3785  165.8075 C.ar    1  UNL1        0.0032
     27 C         142.2168  138.0476  165.1363 C.ar    1  UNL1        0.0296
     28 C         141.0111  137.2249  164.7905 C.ar    1  UNL1        0.1424
     29 F         141.1787  135.8939  164.1193 F       1  UNL1       -0.2041
     30 C         139.6379  137.7332  165.1158 C.ar    1  UNL1        0.0590
     31 C         139.4702  139.0641  165.7870 C.ar    1  UNL1        0.1413
     32 F         138.0970  139.5724  166.1123 F       1  UNL1       -0.2043
@<TRIPOS>BOND
     1    23    24    1
     2    24    15    1
     3    15    16   ar
     4    16    17   ar
     5    17     1    1
     6     1     2    1
     7     3     2    1
     8     3     4    1
     9     4     5    2
    10     4     6   am
    11     6     7    1
    12     6     8    1
    13     8     9    2
    14     8    10    1
    15    10    11    1
    16    11    25    1
    17    25    26   ar
    18    26    27   ar
    19    27    28   ar
    20    28    29    1
    21    28    30   ar
    22    30    31   ar
    23    31    32    1
    24    11    12    1
    25    17    18   ar
    26    18    19   ar
    27    19    20    1
    28    19    21   ar
    29    21    22    1
    30    21    15   ar
    31    12     1    1
    32    11     3    1
    33    31    25   ar
    34     9    13    1
    35    10    14    1
@<TRIPOS>MOLECULE
*****
 32 35 0 0 0
SMALL
GASTEIGER

@<TRIPOS>ATOM
      1 N         140.9674  140.4386  165.8734 N.pl3   1  UNL1       -0.2740
      2 C         140.2015  139.3265  165.2203 C.3     1  UNL1        0.1079
      3 C         140.2586  139.5339  163.7358 C.3     1  UNL1        0.1494
      4 C         139.6845  138.7536  162.5906 C.2     1  UNL1        0.2919
      5 O         138.8833  137.5133  162.8548 O.2     1  UNL1       -0.2563
      6 N         139.9117  139.2136  161.1810 N.am    1  UNL1       -0.1449
      7 C         139.3376  138.4332  160.0357 C.3     1  UNL1        0.2159
      8 C         140.7128  140.4538  160.9167 C.2     1  UNL1        0.3728
      9 N         140.9399  140.9138  159.5071 N.2     1  UNL1       -0.1329
     10 N         141.2869  141.2341  162.0619 N.pl3   1  UNL1       -0.2251
     11 C         141.0598  140.7742  163.4714 C.3     1  UNL1        0.1526
     12 C         141.4978  141.3333  164.7926 C.3     1  UNL1        0.1323
     13 H         140.5632  140.4017  158.7554 H       1  UNL1        0.3058
     14 H         141.8127  142.0481  161.8884 H       1  UNL1        0.2454
     15 C         140.3488  140.2830  169.7905 C.ar    1  UNL1        0.2569
     16 N         140.1486  140.0981  168.3154 N.ar    1  UNL1       -0.1768
     17 C         141.1677  140.6236  167.3484 C.ar    1  UNL1        0.2226
     18 N         142.3872  141.3340  167.8564 N.ar    1  UNL1       -0.2155
     19 C         142.5875  141.5189  169.3315 C.ar    1  UNL1        0.0942
     20 C         143.8070  142.2294  169.8395 C.3     1  UNL1        0.0548
     21 C         141.5683  140.9935  170.2985 C.ar    1  UNL1        0.2065
     22 F         141.7686  141.1784  171.7735 F       1  UNL1       -0.1980
     23 C         137.8769  139.7465  170.3837 C.3     1  UNL1        0.2543
     24 O         139.3296  139.7576  170.7574 O.3     1  UNL1       -0.4545
     25 C         141.8775  142.0270  163.3628 C.ar    1  UNL1        0.0378
     26 C         141.2085  143.3677  163.4336 C.ar    1  UNL1        0.0032
     27 C         142.0263  144.6205  163.3249 C.ar    1  UNL1        0.0296
     28 C         143.5129  144.5325  163.1454 C.ar    1  UNL1        0.1424
     29 F         144.3307  145.7854  163.0367 F       1  UNL1       -0.2041
     30 C         144.1818  143.1918  163.0746 C.ar    1  UNL1        0.0590
     31 C         143.3641  141.9390  163.1833 C.ar    1  UNL1        0.1413
     32 F         144.0330  140.5983  163.1125 F       1  UNL1       -0.2043
@<TRIPOS>BOND
     1    23    24    1
     2    24    15    1
     3    15    16   ar
     4    16    17   ar
     5    17     1    1
     6     1     2    1
     7     3     2    1
     8     3     4    1
     9     4     5    2
    10     4     6   am
    11     6     7    1
    12     6     8    1
    13     8     9    2
    14     8    10    1
    15    10    11    1
    16    11    25    1
    17    25    26   ar
    18    26    27   ar
    19    27    28   ar
    20    28    29    1
    21    28    30   ar
    22    30    31   ar
    23    31    32    1
    24    11    12    1
    25    17    18   ar
    26    18    19   ar
    27    19    20    1
    28    19    21   ar
    29    21    22    1
    30    21    15   ar
    31    12     1    1
    32    11     3    1
    33    31    25   ar
    34     9    13    1
    35    10    14    1
@<TRIPOS>MOLECULE
*****
 32 35 0 0 0
SMALL
GASTEIGER

@<TRIPOS>ATOM
      1 N         140.4967  142.3556  164.5284 N.pl3   1  UNL1       -0.2740
      2 C         139.9064  143.6009  163.9363 C.3     1  UNL1        0.1079
      3 C         140.2995  143.6577  162.4898 C.3     1  UNL1        0.1494
      4 C         140.0063  144.6551  161.4085 C.2     1  UNL1        0.2919
      5 O         139.1731  145.8654  161.7102 O.2     1  UNL1       -0.2563
      6 N         140.5464  144.4422  160.0253 N.am    1  UNL1       -0.1449
      7 C         140.2533  145.4396  158.9440 C.3     1  UNL1        0.2159
      8 C         141.3796  143.2320  159.7236 C.2     1  UNL1        0.3728
      9 N         141.9197  143.0191  158.3404 N.2     1  UNL1       -0.1329
     10 N         141.6728  142.2346  160.8049 N.pl3   1  UNL1       -0.2251
     11 C         141.1327  142.4475  162.1880 C.3     1  UNL1        0.1526
     12 C         141.2546  141.6427  163.4479 C.3     1  UNL1        0.1323
     13 H         141.7273  143.6737  157.6307 H       1  UNL1        0.3058
     14 H         142.2197  141.4403  160.6068 H       1  UNL1        0.2454
     15 C         139.3247  140.2861  167.7056 C.ar    1  UNL1        0.2569
     16 N         139.4673  140.7392  166.2827 N.ar    1  UNL1       -0.1768
     17 C         140.3542  141.9026  165.9513 C.ar    1  UNL1        0.2226
     18 N         141.0986  142.6130  167.0427 N.ar    1  UNL1       -0.2155
     19 C         140.9560  142.1599  168.4655 C.ar    1  UNL1        0.0942
     20 C         141.7004  142.8703  169.5569 C.3     1  UNL1        0.0548
     21 C         140.0691  140.9965  168.7970 C.ar    1  UNL1        0.2065
     22 F         139.9265  140.5436  170.2198 F       1  UNL1       -0.1980
     23 C         137.6630  138.4370  166.9508 C.3     1  UNL1        0.2543
     24 O         138.4377  139.1228  168.0369 O.3     1  UNL1       -0.4545
     25 C         141.9465  141.1965  162.0366 C.ar    1  UNL1        0.0378
     26 C         141.2740  139.9020  161.6872 C.ar    1  UNL1        0.0032
     27 C         142.0877  138.6511  161.5358 C.ar    1  UNL1        0.0296
     28 C         143.5740  138.6946  161.7338 C.ar    1  UNL1        0.1424
     29 F         144.3878  137.4437  161.5824 F       1  UNL1       -0.2041
     30 C         144.2464  139.9892  162.0832 C.ar    1  UNL1        0.0590
     31 C         143.4327  141.2401  162.2346 C.ar    1  UNL1        0.1413
     32 F         144.1052  142.5346  162.5840 F       1  UNL1       -0.2043
@<TRIPOS>BOND
     1    23    24    1
     2    24    15    1
     3    15    16   ar
     4    16    17   ar
     5    17     1    1
     6     1     2    1
     7     3     2    1
     8     3     4    1
     9     4     5    2
    10     4     6   am
    11     6     7    1
    12     6     8    1
    13     8     9    2
    14     8    10    1
    15    10    11    1
    16    11    25    1
    17    25    26   ar
    18    26    27   ar
    19    27    28   ar
    20    28    29    1
    21    28    30   ar
    22    30    31   ar
    23    31    32    1
    24    11    12    1
    25    17    18   ar
    26    18    19   ar
    27    19    20    1
    28    19    21   ar
    29    21    22    1
    30    21    15   ar
    31    12     1    1
    32    11     3    1
    33    31    25   ar
    34     9    13    1
    35    10    14    1
@<TRIPOS>MOLECULE
*****
 32 35 0 0 0
SMALL
GASTEIGER

@<TRIPOS>ATOM
      1 N         142.6427  140.0681  163.4175 N.pl3   1  UNL1       -0.2740
      2 C         143.3618  139.2173  164.4220 C.3     1  UNL1        0.1079
      3 C         142.7456  139.4668  165.7666 C.3     1  UNL1        0.1494
      4 C         143.0440  138.9087  167.1265 C.2     1  UNL1        0.2919
      5 O         144.1439  137.9036  167.3001 O.2     1  UNL1       -0.2563
      6 N         142.2423  139.3556  168.3130 N.am    1  UNL1       -0.1449
      7 C         142.5407  138.7974  169.6731 C.3     1  UNL1        0.2159
      8 C         141.1424  140.3605  168.1396 C.2     1  UNL1        0.3728
      9 N         140.3408  140.8074  169.3261 N.2     1  UNL1       -0.1329
     10 N         140.8440  140.9187  166.7797 N.pl3   1  UNL1       -0.2251
     11 C         141.6456  140.4718  165.5932 C.3     1  UNL1        0.1526
     12 C         141.5820  140.8434  164.1413 C.3     1  UNL1        0.1323
     13 H         140.5366  140.4411  170.2187 H       1  UNL1        0.3058
     14 H         140.1221  141.5783  166.6658 H       1  UNL1        0.2454
     15 C         143.2002  138.9438  159.6525 C.ar    1  UNL1        0.2569
     16 N         142.9097  138.8796  161.1227 N.ar    1  UNL1       -0.1768
     17 C         142.9332  140.1324  161.9473 C.ar    1  UNL1        0.2226
     18 N         143.2472  141.4494  161.3017 N.ar    1  UNL1       -0.2155
     19 C         143.5377  141.5136  159.8315 C.ar    1  UNL1        0.0942
     20 C         143.8517  142.8306  159.1859 C.3     1  UNL1        0.0548
     21 C         143.5142  140.2608  159.0069 C.ar    1  UNL1        0.2065
     22 F         143.8048  140.3250  157.5367 F       1  UNL1       -0.1980
     23 C         142.1617  137.5311  157.7352 C.3     1  UNL1        0.2543
     24 O         143.1767  137.6910  158.8280 O.3     1  UNL1       -0.4545
     25 C         140.5821  141.4780  165.2670 C.ar    1  UNL1        0.0378
     26 C         140.9069  142.9424  165.2761 C.ar    1  UNL1        0.0032
     27 C         139.8434  143.9486  164.9499 C.ar    1  UNL1        0.0296
     28 C         138.4550  143.4904  164.6146 C.ar    1  UNL1        0.1424
     29 F         137.3913  144.4966  164.2884 F       1  UNL1       -0.2041
     30 C         138.1301  142.0260  164.6055 C.ar    1  UNL1        0.0590
     31 C         139.1937  141.0198  164.9317 C.ar    1  UNL1        0.1413
     32 F         138.8689  139.5554  164.9226 F       1  UNL1       -0.2043
@<TRIPOS>BOND
     1    23    24    1
     2    24    15    1
     3    15    16   ar
     4    16    17   ar
     5    17     1    1
     6     1     2    1
     7     3     2    1
     8     3     4    1
     9     4     5    2
    10     4     6   am
    11     6     7    1
    12     6     8    1
    13     8     9    2
    14     8    10    1
    15    10    11    1
    16    11    25    1
    17    25    26   ar
    18    26    27   ar
    19    27    28   ar
    20    28    29    1
    21    28    30   ar
    22    30    31   ar
    23    31    32    1
    24    11    12    1
    25    17    18   ar
    26    18    19   ar
    27    19    20    1
    28    19    21   ar
    29    21    22    1
    30    21    15   ar
    31    12     1    1
    32    11     3    1
    33    31    25   ar
    34     9    13    1
    35    10    14    1
@<TRIPOS>MOLECULE
*****
 32 35 0 0 0
SMALL
GASTEIGER

@<TRIPOS>ATOM
      1 N         140.6953  140.3371  165.5407 N.pl3   1  UNL1       -0.2740
      2 C         139.9941  139.2737  164.7486 C.3     1  UNL1        0.1079
      3 C         140.1694  139.5889  163.2926 C.3     1  UNL1        0.1494
      4 C         139.6965  138.8927  162.0510 C.2     1  UNL1        0.2919
      5 O         138.8869  137.6345  162.1586 O.2     1  UNL1       -0.2563
      6 N         140.0332  139.4548  160.7016 N.am    1  UNL1       -0.1449
      7 C         139.5602  138.7586  159.4599 C.3     1  UNL1        0.2159
      8 C         140.8428  140.7129  160.5939 C.2     1  UNL1        0.3728
      9 N         141.1795  141.2750  159.2445 N.2     1  UNL1       -0.1329
     10 N         141.3157  141.4090  161.8355 N.pl3   1  UNL1       -0.2251
     11 C         140.9791  140.8470  163.1849 C.3     1  UNL1        0.1526
     12 C         141.3041  141.3094  164.5743 C.3     1  UNL1        0.1323
     13 H         140.8691  140.8181  158.4295 H       1  UNL1        0.3058
     14 H         141.8471  142.2348  161.7648 H       1  UNL1        0.2454
     15 C         142.1725  140.7361  169.2026 C.ar    1  UNL1        0.2569
     16 N         142.0937  140.6586  167.7066 N.ar    1  UNL1       -0.1768
     17 C         140.7740  140.4145  167.0367 C.ar    1  UNL1        0.2226
     18 N         139.5330  140.2479  167.8626 N.ar    1  UNL1       -0.2155
     19 C         139.6118  140.3254  169.3586 C.ar    1  UNL1        0.0942
     20 C         138.3709  140.1587  170.1845 C.3     1  UNL1        0.0548
     21 C         140.9315  140.5694  170.0286 C.ar    1  UNL1        0.2065
     22 F         141.0102  140.6469  171.5245 F       1  UNL1       -0.1980
     23 C         144.0680  142.3646  169.9131 C.3     1  UNL1        0.2543
     24 O         143.4921  140.9802  169.8725 O.3     1  UNL1       -0.4545
     25 C         141.7924  142.1064  163.2341 C.ar    1  UNL1        0.0378
     26 C         141.1086  143.4372  163.3396 C.ar    1  UNL1        0.0032
     27 C         141.9220  144.6966  163.3889 C.ar    1  UNL1        0.0296
     28 C         143.4192  144.6250  163.3327 C.ar    1  UNL1        0.1424
     29 F         144.2327  145.8844  163.3819 F       1  UNL1       -0.2041
     30 C         144.1031  143.2941  163.2272 C.ar    1  UNL1        0.0590
     31 C         143.2897  142.0348  163.1779 C.ar    1  UNL1        0.1413
     32 F         143.9735  140.7039  163.0724 F       1  UNL1       -0.2043
@<TRIPOS>BOND
     1    23    24    1
     2    24    15    1
     3    15    16   ar
     4    16    17   ar
     5    17     1    1
     6     1     2    1
     7     3     2    1
     8     3     4    1
     9     4     5    2
    10     4     6   am
    11     6     7    1
    12     6     8    1
    13     8     9    2
    14     8    10    1
    15    10    11    1
    16    11    25    1
    17    25    26   ar
    18    26    27   ar
    19    27    28   ar
    20    28    29    1
    21    28    30   ar
    22    30    31   ar
    23    31    32    1
    24    11    12    1
    25    17    18   ar
    26    18    19   ar
    27    19    20    1
    28    19    21   ar
    29    21    22    1
    30    21    15   ar
    31    12     1    1
    32    11     3    1
    33    31    25   ar
    34     9    13    1
    35    10    14    1
@<TRIPOS>MOLECULE
*****
 32 35 0 0 0
SMALL
GASTEIGER

@<TRIPOS>ATOM
      1 N         142.2615  141.8063  165.5614 N.pl3   1  UNL1       -0.2740
      2 C         143.1322  142.7264  164.7581 C.3     1  UNL1        0.1079
      3 C         142.9711  142.3701  163.3100 C.3     1  UNL1        0.1494
      4 C         143.5826  142.9368  162.0630 C.2     1  UNL1        0.2919
      5 O         144.5528  144.0771  162.1546 O.2     1  UNL1       -0.2563
      6 N         143.2237  142.3631  160.7242 N.am    1  UNL1       -0.1449
      7 C         143.8352  142.9297  159.4771 C.3     1  UNL1        0.2159
      8 C         142.2535  141.2229  160.6325 C.2     1  UNL1        0.3728
      9 N         141.8947  140.6492  159.2938 N.2     1  UNL1       -0.1329
     10 N         141.6421  140.6562  161.8795 N.pl3   1  UNL1       -0.2251
     11 C         142.0009  141.2299  163.2182 C.3     1  UNL1        0.1526
     12 C         141.5623  140.8814  164.6097 C.3     1  UNL1        0.1323
     13 H         142.2960  141.0210  158.4753 H       1  UNL1        0.3058
     14 H         141.0053  139.9078  161.8193 H       1  UNL1        0.2454
     15 C         142.6514  140.7616  169.3702 C.ar    1  UNL1        0.2569
     16 N         142.7972  140.7576  167.8773 N.ar    1  UNL1       -0.1768
     17 C         142.1157  141.8103  167.0543 C.ar    1  UNL1        0.2226
     18 N         141.2882  142.8670  167.7241 N.ar    1  UNL1       -0.2155
     19 C         141.1424  142.8710  169.2171 C.ar    1  UNL1        0.0942
     20 C         140.3150  143.9277  169.8869 C.3     1  UNL1        0.0548
     21 C         141.8240  141.8183  170.0401 C.ar    1  UNL1        0.2065
     22 F         141.6781  141.8223  171.5330 F       1  UNL1       -0.1980
     23 C         142.7926  138.3098  170.2181 C.3     1  UNL1        0.2543
     24 O         143.3330  139.7089  170.1931 O.3     1  UNL1       -0.4545
     25 C         141.0207  140.0963  163.2831 C.ar    1  UNL1        0.0378
     26 C         139.5474  140.3758  163.2479 C.ar    1  UNL1        0.0032
     27 C         138.5672  139.2422  163.3127 C.ar    1  UNL1        0.0296
     28 C         139.0604  137.8291  163.4128 C.ar    1  UNL1        0.1424
     29 F         138.0802  136.6954  163.4777 F       1  UNL1       -0.2041
     30 C         140.5337  137.5496  163.4480 C.ar    1  UNL1        0.0590
     31 C         141.5139  138.6832  163.3832 C.ar    1  UNL1        0.1413
     32 F         142.9872  138.4037  163.4184 F       1  UNL1       -0.2043
@<TRIPOS>BOND
     1    23    24    1
     2    24    15    1
     3    15    16   ar
     4    16    17   ar
     5    17     1    1
     6     1     2    1
     7     3     2    1
     8     3     4    1
     9     4     5    2
    10     4     6   am
    11     6     7    1
    12     6     8    1
    13     8     9    2
    14     8    10    1
    15    10    11    1
    16    11    25    1
    17    25    26   ar
    18    26    27   ar
    19    27    28   ar
    20    28    29    1
    21    28    30   ar
    22    30    31   ar
    23    31    32    1
    24    11    12    1
    25    17    18   ar
    26    18    19   ar
    27    19    20    1
    28    19    21   ar
    29    21    22    1
    30    21    15   ar
    31    12     1    1
    32    11     3    1
    33    31    25   ar
    34     9    13    1
    35    10    14    1
@<TRIPOS>MOLECULE
*****
 32 35 0 0 0
SMALL
GASTEIGER

@<TRIPOS>ATOM
      1 N         141.8684  140.4626  165.3853 N.pl3   1  UNL1       -0.2740
      2 C         142.7587  139.5335  164.6146 C.3     1  UNL1        0.1079
      3 C         142.4280  139.6762  163.1585 C.3     1  UNL1        0.1494
      4 C         142.9822  139.0112  161.9335 C.2     1  UNL1        0.2919
      5 O         144.0771  137.9939  162.0626 O.2     1  UNL1       -0.2563
      6 N         142.4417  139.3635  160.5793 N.am    1  UNL1       -0.1449
      7 C         142.9960  138.6985  159.3543 C.3     1  UNL1        0.2159
      8 C         141.3469  140.3807  160.4502 C.2     1  UNL1        0.3728
      9 N         140.8064  140.7330  159.0960 N.2     1  UNL1       -0.1329
     10 N         140.7927  141.0457  161.6752 N.pl3   1  UNL1       -0.2251
     11 C         141.3332  140.6934  163.0293 C.3     1  UNL1        0.1526
     12 C         140.9873  141.1794  164.4056 C.3     1  UNL1        0.1323
     13 H         141.1701  140.2966  158.2920 H       1  UNL1        0.3058
     14 H         140.0741  141.7133  161.5904 H       1  UNL1        0.2454
     15 C         140.7711  140.1927  169.1898 C.ar    1  UNL1        0.2569
     16 N         140.7791  140.0122  167.7006 N.ar    1  UNL1       -0.1768
     17 C         141.8604  140.6431  166.8744 C.ar    1  UNL1        0.2226
     18 N         142.9338  141.4546  167.5373 N.ar    1  UNL1       -0.2155
     19 C         142.9258  141.6351  169.0264 C.ar    1  UNL1        0.0942
     20 C         143.9991  142.4465  169.6892 C.3     1  UNL1        0.0548
     21 C         141.8444  141.0041  169.8526 C.ar    1  UNL1        0.2065
     22 F         141.8365  141.1847  171.3417 F       1  UNL1       -0.1980
     23 C         138.3870  140.2770  170.2188 C.3     1  UNL1        0.2543
     24 O         139.6897  139.5617  170.0159 O.3     1  UNL1       -0.4545
     25 C         140.2436  141.7239  163.0565 C.ar    1  UNL1        0.0378
     26 C         140.5886  143.1822  162.9901 C.ar    1  UNL1        0.0032
     27 C         139.4990  144.2127  163.0173 C.ar    1  UNL1        0.0296
     28 C         138.0644  143.7850  163.1110 C.ar    1  UNL1        0.1424
     29 F         136.9747  144.8155  163.1382 F       1  UNL1       -0.2041
     30 C         137.7193  142.3267  163.1774 C.ar    1  UNL1        0.0590
     31 C         138.8089  141.2962  163.1502 C.ar    1  UNL1        0.1413
     32 F         138.4639  139.8379  163.2167 F       1  UNL1       -0.2043
@<TRIPOS>BOND
     1    23    24    1
     2    24    15    1
     3    15    16   ar
     4    16    17   ar
     5    17     1    1
     6     1     2    1
     7     3     2    1
     8     3     4    1
     9     4     5    2
    10     4     6   am
    11     6     7    1
    12     6     8    1
    13     8     9    2
    14     8    10    1
    15    10    11    1
    16    11    25    1
    17    25    26   ar
    18    26    27   ar
    19    27    28   ar
    20    28    29    1
    21    28    30   ar
    22    30    31   ar
    23    31    32    1
    24    11    12    1
    25    17    18   ar
    26    18    19   ar
    27    19    20    1
    28    19    21   ar
    29    21    22    1
    30    21    15   ar
    31    12     1    1
    32    11     3    1
    33    31    25   ar
    34     9    13    1
    35    10    14    1
