@<TRIPOS>MOLECULE
*****
 31 34 0 0 0
SMALL
GASTEIGER

@<TRIPOS>ATOM
      1 C         138.9154  138.6346  165.5012 C.3     1  UNL1        0.1528
      2 C         139.8407  138.5798  164.3218 C.ar    1  UNL1        0.2480
      3 N         140.5167  139.7530  163.6764 N.ar    1  UNL1       -0.1900
      4 C         141.3463  139.2404  162.5365 C.ar    1  UNL1        0.2034
      5 N         141.1829  137.7505  162.4776 N.ar    1  UNL1       -0.0560
      6 O         140.2524  137.3422  163.5810 O.2     1  UNL1       -0.3361
      7 C         142.1909  140.0718  161.6171 C.ar    1  UNL1        0.0423
      8 C         142.9504  139.4187  160.5005 C.ar    1  UNL1        0.0065
      9 C         143.7950  140.2501  159.5811 C.ar    1  UNL1        0.0401
     10 C         143.8801  141.7346  159.7782 C.ar    1  UNL1        0.1724
     11 C         143.1207  142.3878  160.8947 C.ar    1  UNL1        0.1725
     12 C         142.2760  141.5564  161.8141 C.ar    1  UNL1        0.0432
     13 O         144.7247  142.5660  158.8587 O.3     1  UNL1       -0.4684
     14 C         145.1707  142.0076  157.5399 C.3     1  UNL1        0.2526
     15 O         143.2059  143.8723  161.0917 O.3     1  UNL1       -0.4684
     16 C         142.7530  144.4846  162.3840 C.3     1  UNL1        0.2526
     17 S         138.8891  139.8512  166.3780 S.3     1  UNL1       -0.0653
     18 N         141.0571  139.9177  167.9402 N.ar    1  UNL1       -0.2724
     19 C         141.3009  139.8598  169.4191 C.ar    1  UNL1        0.1479
     20 C         142.6389  139.9153  170.0950 C.3     1  UNL1        0.0742
     21 N         139.9718  139.7368  170.1036 N.ar    1  UNL1       -0.1325
     22 N         138.9066  139.7186  169.0477 N.ar    1  UNL1       -0.1221
     23 C         139.5773  139.8304  167.7106 C.ar    1  UNL1        0.1973
     24 C         144.2111  140.2881  164.7519 C.ar    1  UNL1        0.1388
     25 C         143.5075  141.5128  165.2568 C.ar    1  UNL1        0.0384
     26 C         142.4562  141.3894  166.3195 C.ar    1  UNL1        0.0207
     27 C         142.1084  140.0411  166.8774 C.ar    1  UNL1        0.0671
     28 C         142.8120  138.8164  166.3726 C.ar    1  UNL1        0.0207
     29 C         143.8633  138.9399  165.3098 C.ar    1  UNL1        0.0384
     30 C         145.8091  141.7609  163.3281 C.3     1  UNL1        0.2525
     31 O         145.2625  140.4116  163.6892 O.3     1  UNL1       -0.4714
@<TRIPOS>BOND
     1    30    31    1
     2    31    24    1
     3    24    25   ar
     4    25    26   ar
     5    26    27   ar
     6    27    18    1
     7    18    19   ar
     8    19    20    1
     9    19    21   ar
    10    21    22   ar
    11    22    23   ar
    12    23    17    1
    13    17     1    1
    14     1     2    1
    15     2     3   ar
    16     3     4   ar
    17     4     7    1
    18     7     8   ar
    19     8     9   ar
    20     9    10   ar
    21    10    13    1
    22    13    14    1
    23    10    11   ar
    24    11    15    1
    25    15    16    1
    26    11    12   ar
    27     4     5   ar
    28     5     6   ar
    29    27    28   ar
    30    28    29   ar
    31    29    24   ar
    32    23    18   ar
    33     6     2   ar
    34    12     7   ar
@<TRIPOS>MOLECULE
*****
 31 34 0 0 0
SMALL
GASTEIGER

@<TRIPOS>ATOM
      1 C         142.8082  138.0223  165.6101 C.3     1  UNL1        0.1528
      2 C         141.9199  138.1354  164.4067 C.ar    1  UNL1        0.2480
      3 N         141.5479  139.4062  163.7019 N.ar    1  UNL1       -0.1900
      4 C         140.6457  139.0538  162.5563 C.ar    1  UNL1        0.2034
      5 N         140.4603  137.5653  162.5533 N.ar    1  UNL1       -0.0560
      6 O         141.2478  136.9977  163.6969 O.2     1  UNL1       -0.3361
      7 C         140.0362  140.0202  161.5846 C.ar    1  UNL1        0.0423
      8 C         138.7403  139.6859  160.9072 C.ar    1  UNL1        0.0065
      9 C         138.1306  140.6523  159.9354 C.ar    1  UNL1        0.0401
     10 C         138.8169  141.9532  159.6411 C.ar    1  UNL1        0.1724
     11 C         140.1128  142.2877  160.3184 C.ar    1  UNL1        0.1725
     12 C         140.7225  141.3212  161.2902 C.ar    1  UNL1        0.0432
     13 O         138.2073  142.9196  158.6693 O.3     1  UNL1       -0.4684
     14 C         137.6098  142.4184  157.3880 C.3     1  UNL1        0.2526
     15 O         140.7991  143.5886  160.0240 O.3     1  UNL1       -0.4684
     16 C         140.2924  144.8597  160.6384 C.3     1  UNL1        0.2526
     17 S         143.0680  139.2260  166.4665 S.3     1  UNL1       -0.0653
     18 N         140.9352  139.9825  167.8892 N.ar    1  UNL1       -0.2724
     19 C         140.5765  139.9797  169.3456 C.ar    1  UNL1        0.1479
     20 C         139.2866  140.4661  169.9369 C.3     1  UNL1        0.0742
     21 N         141.7341  139.4051  170.1071 N.ar    1  UNL1       -0.1325
     22 N         142.8083  139.0528  169.1212 N.ar    1  UNL1       -0.1221
     23 C         142.3146  139.4097  167.7505 C.ar    1  UNL1        0.1973
     24 C         138.3308  141.4517  164.5264 C.ar    1  UNL1        0.1388
     25 C         139.4002  142.3399  165.0898 C.ar    1  UNL1        0.0384
     26 C         140.2683  141.8501  166.2107 C.ar    1  UNL1        0.0207
     27 C         140.0671  140.4723  166.7682 C.ar    1  UNL1        0.0671
     28 C         138.9977  139.5841  166.2048 C.ar    1  UNL1        0.0207
     29 C         138.1295  140.0738  165.0839 C.ar    1  UNL1        0.0384
     30 C         137.6469  143.3285  162.8651 C.3     1  UNL1        0.2525
     31 O         137.4626  141.9414  163.4054 O.3     1  UNL1       -0.4714
@<TRIPOS>BOND
     1    30    31    1
     2    31    24    1
     3    24    25   ar
     4    25    26   ar
     5    26    27   ar
     6    27    18    1
     7    18    19   ar
     8    19    20    1
     9    19    21   ar
    10    21    22   ar
    11    22    23   ar
    12    23    17    1
    13    17     1    1
    14     1     2    1
    15     2     3   ar
    16     3     4   ar
    17     4     7    1
    18     7     8   ar
    19     8     9   ar
    20     9    10   ar
    21    10    13    1
    22    13    14    1
    23    10    11   ar
    24    11    15    1
    25    15    16    1
    26    11    12   ar
    27     4     5   ar
    28     5     6   ar
    29    27    28   ar
    30    28    29   ar
    31    29    24   ar
    32    23    18   ar
    33     6     2   ar
    34    12     7   ar
@<TRIPOS>MOLECULE
*****
 31 34 0 0 0
SMALL
GASTEIGER

@<TRIPOS>ATOM
      1 C         142.4742  138.5562  165.2818 C.3     1  UNL1        0.1528
      2 C         141.8906  139.2335  164.0773 C.ar    1  UNL1        0.2480
      3 N         142.3764  140.5129  163.4633 N.ar    1  UNL1       -0.1900
      4 C         141.5047  140.8204  162.2819 C.ar    1  UNL1        0.2034
      5 N         140.4802  139.7310  162.1658 N.ar    1  UNL1       -0.0560
      6 O         140.7186  138.7502  163.2754 O.2     1  UNL1       -0.3361
      7 C         141.6347  142.0086  161.3758 C.ar    1  UNL1        0.0423
      8 C         142.7726  142.0882  160.4017 C.ar    1  UNL1        0.0065
      9 C         142.9027  143.2765  159.4956 C.ar    1  UNL1        0.0401
     10 C         141.8947  144.3852  159.5635 C.ar    1  UNL1        0.1724
     11 C         140.7568  144.3058  160.5375 C.ar    1  UNL1        0.1725
     12 C         140.6267  143.1175  161.4436 C.ar    1  UNL1        0.0432
     13 O         142.0248  145.5735  158.6573 O.3     1  UNL1       -0.4684
     14 C         142.1139  145.3784  157.1727 C.3     1  UNL1        0.2526
     15 O         139.7489  145.4146  160.6053 O.3     1  UNL1       -0.4684
     16 C         139.7379  146.3473  161.7800 C.3     1  UNL1        0.2526
     17 S         143.0287  139.3765  166.4084 S.3     1  UNL1       -0.0653
     18 N         140.8958  140.0917  167.8522 N.ar    1  UNL1       -0.2724
     19 C         140.5207  140.0099  169.3022 C.ar    1  UNL1        0.1479
     20 C         139.2343  140.4872  169.9084 C.3     1  UNL1        0.0742
     21 N         141.6578  139.3671  170.0397 N.ar    1  UNL1       -0.1325
     22 N         142.7357  139.0516  169.0454 N.ar    1  UNL1       -0.1221
     23 C         142.2647  139.4994  167.6935 C.ar    1  UNL1        0.1973
     24 C         138.3597  141.8119  164.5568 C.ar    1  UNL1        0.1388
     25 C         138.1120  140.4144  165.0422 C.ar    1  UNL1        0.0384
     26 C         138.9574  139.8410  166.1406 C.ar    1  UNL1        0.0207
     27 C         140.0504  140.6651  166.7537 C.ar    1  UNL1        0.0671
     28 C         140.2981  142.0626  166.2684 C.ar    1  UNL1        0.0207
     29 C         139.4527  142.6360  165.1700 C.ar    1  UNL1        0.0384
     30 C         137.5647  143.8549  163.1626 C.3     1  UNL1        0.2525
     31 O         137.5143  142.3852  163.4584 O.3     1  UNL1       -0.4714
@<TRIPOS>BOND
     1    30    31    1
     2    31    24    1
     3    24    25   ar
     4    25    26   ar
     5    26    27   ar
     6    27    18    1
     7    18    19   ar
     8    19    20    1
     9    19    21   ar
    10    21    22   ar
    11    22    23   ar
    12    23    17    1
    13    17     1    1
    14     1     2    1
    15     2     3   ar
    16     3     4   ar
    17     4     7    1
    18     7     8   ar
    19     8     9   ar
    20     9    10   ar
    21    10    13    1
    22    13    14    1
    23    10    11   ar
    24    11    15    1
    25    15    16    1
    26    11    12   ar
    27     4     5   ar
    28     5     6   ar
    29    27    28   ar
    30    28    29   ar
    31    29    24   ar
    32    23    18   ar
    33     6     2   ar
    34    12     7   ar
@<TRIPOS>MOLECULE
*****
 31 34 0 0 0
SMALL
GASTEIGER

@<TRIPOS>ATOM
      1 C         139.0149  138.8560  165.8713 C.3     1  UNL1        0.1528
      2 C         139.3686  139.2945  164.4812 C.ar    1  UNL1        0.2480
      3 N         139.8697  140.6519  164.0856 N.ar    1  UNL1       -0.1900
      4 C         140.0941  140.6489  162.6024 C.ar    1  UNL1        0.2034
      5 N         139.7317  139.2897  162.0815 N.ar    1  UNL1       -0.0560
      6 O         139.2833  138.4527  163.2426 O.2     1  UNL1       -0.3361
      7 C         140.5932  141.8025  161.7840 C.ar    1  UNL1        0.0423
      8 C         139.8118  142.2704  160.5921 C.ar    1  UNL1        0.0065
      9 C         140.3109  143.4241  159.7736 C.ar    1  UNL1        0.0401
     10 C         141.5916  144.1099  160.1470 C.ar    1  UNL1        0.1724
     11 C         142.3731  143.6422  161.3388 C.ar    1  UNL1        0.1725
     12 C         141.8740  142.4885  162.1573 C.ar    1  UNL1        0.0432
     13 O         142.0908  145.2636  159.3285 O.3     1  UNL1       -0.4684
     14 C         142.1590  145.1492  157.8345 C.3     1  UNL1        0.2526
     15 O         143.6538  144.3281  161.7121 O.3     1  UNL1       -0.4684
     16 C         143.8165  144.9194  163.0810 C.3     1  UNL1        0.2526
     17 S         138.7786  139.8784  166.9431 S.3     1  UNL1       -0.0653
     18 N         141.0863  139.9378  168.2907 N.ar    1  UNL1       -0.2724
     19 C         141.4712  139.8643  169.7386 C.ar    1  UNL1        0.1479
     20 C         142.8677  139.9187  170.2835 C.3     1  UNL1        0.0742
     21 N         140.2145  139.7269  170.5459 N.ar    1  UNL1       -0.1325
     22 N         139.0529  139.7154  169.5970 N.ar    1  UNL1       -0.1221
     23 C         139.5917  139.8458  168.2032 C.ar    1  UNL1        0.1973
     24 C         143.9182  140.3601  164.8190 C.ar    1  UNL1        0.1388
     25 C         143.5227  138.9964  165.3027 C.ar    1  UNL1        0.0384
     26 C         142.5787  138.8557  166.4599 C.ar    1  UNL1        0.0207
     27 C         142.0303  140.0785  167.1335 C.ar    1  UNL1        0.0671
     28 C         142.4258  141.4422  166.6498 C.ar    1  UNL1        0.0207
     29 C         143.3697  141.5830  165.4926 C.ar    1  UNL1        0.0384
     30 C         145.7244  141.7223  163.5416 C.3     1  UNL1        0.2525
     31 O         144.8621  140.5009  163.6618 O.3     1  UNL1       -0.4714
@<TRIPOS>BOND
     1    30    31    1
     2    31    24    1
     3    24    25   ar
     4    25    26   ar
     5    26    27   ar
     6    27    18    1
     7    18    19   ar
     8    19    20    1
     9    19    21   ar
    10    21    22   ar
    11    22    23   ar
    12    23    17    1
    13    17     1    1
    14     1     2    1
    15     2     3   ar
    16     3     4   ar
    17     4     7    1
    18     7     8   ar
    19     8     9   ar
    20     9    10   ar
    21    10    13    1
    22    13    14    1
    23    10    11   ar
    24    11    15    1
    25    15    16    1
    26    11    12   ar
    27     4     5   ar
    28     5     6   ar
    29    27    28   ar
    30    28    29   ar
    31    29    24   ar
    32    23    18   ar
    33     6     2   ar
    34    12     7   ar
@<TRIPOS>MOLECULE
*****
 31 34 0 0 0
SMALL
GASTEIGER

@<TRIPOS>ATOM
      1 C         138.7590  138.4668  165.7920 C.3     1  UNL1        0.1528
      2 C         139.2536  138.3710  164.3791 C.ar    1  UNL1        0.2480
      3 N         140.2133  139.3133  163.7150 N.ar    1  UNL1       -0.1900
      4 C         140.4281  138.8406  162.3077 C.ar    1  UNL1        0.2034
      5 N         139.6011  137.6062  162.1020 N.ar    1  UNL1       -0.0560
      6 O         138.8752  137.3159  163.3822 O.2     1  UNL1       -0.3361
      7 C         141.3143  139.4886  161.2856 C.ar    1  UNL1        0.0423
      8 C         141.5982  140.9594  161.3635 C.ar    1  UNL1        0.0065
      9 C         142.4844  141.6074  160.3413 C.ar    1  UNL1        0.0401
     10 C         143.0867  140.7846  159.2413 C.ar    1  UNL1        0.1724
     11 C         142.8028  139.3138  159.1633 C.ar    1  UNL1        0.1725
     12 C         141.9166  138.6658  160.1854 C.ar    1  UNL1        0.0432
     13 O         143.9729  141.4326  158.2192 O.3     1  UNL1       -0.4684
     14 C         144.9314  142.5098  158.6325 C.3     1  UNL1        0.2526
     15 O         143.4051  138.4910  158.0632 O.3     1  UNL1       -0.4684
     16 C         142.6725  137.2931  157.5354 C.3     1  UNL1        0.2526
     17 S         138.8735  139.7616  166.5405 S.3     1  UNL1       -0.0653
     18 N         141.1147  139.9556  167.9842 N.ar    1  UNL1       -0.2724
     19 C         141.4349  139.9650  169.4496 C.ar    1  UNL1        0.1479
     20 C         142.8029  140.0875  170.0524 C.3     1  UNL1        0.0742
     21 N         140.1468  139.8303  170.2064 N.ar    1  UNL1       -0.1325
     22 N         139.0305  139.7377  169.2087 N.ar    1  UNL1       -0.1221
     23 C         139.6287  139.8152  167.8354 C.ar    1  UNL1        0.1973
     24 C         144.0896  140.2901  164.6245 C.ar    1  UNL1        0.1388
     25 C         143.4277  141.5226  165.1656 C.ar    1  UNL1        0.0384
     26 C         142.4361  141.4111  166.2855 C.ar    1  UNL1        0.0207
     27 C         142.1063  140.0671  166.8643 C.ar    1  UNL1        0.0671
     28 C         142.7682  138.8347  166.3231 C.ar    1  UNL1        0.0207
     29 C         143.7599  138.9462  165.2032 C.ar    1  UNL1        0.0384
     30 C         145.3744  141.7394  162.8927 C.3     1  UNL1        0.2525
     31 O         145.0813  140.4016  163.5046 O.3     1  UNL1       -0.4714
@<TRIPOS>BOND
     1    30    31    1
     2    31    24    1
     3    24    25   ar
     4    25    26   ar
     5    26    27   ar
     6    27    18    1
     7    18    19   ar
     8    19    20    1
     9    19    21   ar
    10    21    22   ar
    11    22    23   ar
    12    23    17    1
    13    17     1    1
    14     1     2    1
    15     2     3   ar
    16     3     4   ar
    17     4     7    1
    18     7     8   ar
    19     8     9   ar
    20     9    10   ar
    21    10    13    1
    22    13    14    1
    23    10    11   ar
    24    11    15    1
    25    15    16    1
    26    11    12   ar
    27     4     5   ar
    28     5     6   ar
    29    27    28   ar
    30    28    29   ar
    31    29    24   ar
    32    23    18   ar
    33     6     2   ar
    34    12     7   ar
@<TRIPOS>MOLECULE
*****
 31 34 0 0 0
SMALL
GASTEIGER

@<TRIPOS>ATOM
      1 C         137.5378  139.4067  161.0429 C.3     1  UNL1        0.1528
      2 C         138.0980  139.2280  162.4229 C.ar    1  UNL1        0.2480
      3 N         138.5167  140.3272  163.3537 N.ar    1  UNL1       -0.1900
      4 C         139.0153  139.6971  164.6204 C.ar    1  UNL1        0.2034
      5 N         138.9047  138.2085  164.4724 N.ar    1  UNL1       -0.0560
      6 O         138.3378  137.9186  163.1142 O.2     1  UNL1       -0.3361
      7 C         139.5335  140.4274  165.8237 C.ar    1  UNL1        0.0423
      8 C         139.8361  141.8941  165.7383 C.ar    1  UNL1        0.0065
      9 C         140.3542  142.6245  166.9417 C.ar    1  UNL1        0.0401
     10 C         140.5699  141.8881  168.2305 C.ar    1  UNL1        0.1724
     11 C         140.2673  140.4214  168.3161 C.ar    1  UNL1        0.1725
     12 C         139.7491  139.6911  167.1127 C.ar    1  UNL1        0.0432
     13 O         141.0881  142.6185  169.4339 O.3     1  UNL1       -0.4684
     14 C         140.4785  143.9287  169.8360 C.3     1  UNL1        0.2526
     15 O         140.4830  139.6851  169.6050 O.3     1  UNL1       -0.4684
     16 C         141.8669  139.2723  170.0104 C.3     1  UNL1        0.2526
     17 S         138.3078  140.1822  160.0155 S.3     1  UNL1       -0.0653
     18 N         140.6669  139.0200  159.5369 N.ar    1  UNL1       -0.2724
     19 C         141.3077  138.3719  158.3455 C.ar    1  UNL1        0.1479
     20 C         142.6805  137.7692  158.3017 C.3     1  UNL1        0.0742
     21 N         140.3346  138.4325  157.2055 N.ar    1  UNL1       -0.1325
     22 N         139.0924  139.1180  157.6924 N.ar    1  UNL1       -0.1221
     23 C         139.2978  139.4811  159.1332 C.ar    1  UNL1        0.1973
     24 C         142.5255  139.4972  163.6072 C.ar    1  UNL1        0.1388
     25 C         142.1860  138.1295  163.0935 C.ar    1  UNL1        0.0384
     26 C         141.5665  137.9704  161.7367 C.ar    1  UNL1        0.0207
     27 C         141.2864  139.1791  160.8937 C.ar    1  UNL1        0.0671
     28 C         141.6259  140.5468  161.4075 C.ar    1  UNL1        0.0207
     29 C         142.2455  140.7059  162.7643 C.ar    1  UNL1        0.0384
     30 C         143.1155  138.5178  165.9402 C.3     1  UNL1        0.2525
     31 O         143.1451  139.6563  164.9640 O.3     1  UNL1       -0.4714
@<TRIPOS>BOND
     1    30    31    1
     2    31    24    1
     3    24    25   ar
     4    25    26   ar
     5    26    27   ar
     6    27    18    1
     7    18    19   ar
     8    19    20    1
     9    19    21   ar
    10    21    22   ar
    11    22    23   ar
    12    23    17    1
    13    17     1    1
    14     1     2    1
    15     2     3   ar
    16     3     4   ar
    17     4     7    1
    18     7     8   ar
    19     8     9   ar
    20     9    10   ar
    21    10    13    1
    22    13    14    1
    23    10    11   ar
    24    11    15    1
    25    15    16    1
    26    11    12   ar
    27     4     5   ar
    28     5     6   ar
    29    27    28   ar
    30    28    29   ar
    31    29    24   ar
    32    23    18   ar
    33     6     2   ar
    34    12     7   ar
@<TRIPOS>MOLECULE
*****
 31 34 0 0 0
SMALL
GASTEIGER

@<TRIPOS>ATOM
      1 C         138.1895  139.3510  166.2727 C.3     1  UNL1        0.1528
      2 C         138.3611  139.2818  164.7841 C.ar    1  UNL1        0.2480
      3 N         138.3024  140.4418  163.8349 N.ar    1  UNL1       -0.1900
      4 C         138.5265  139.9173  162.4475 C.ar    1  UNL1        0.2034
      5 N         138.7237  138.4331  162.5394 N.ar    1  UNL1       -0.0560
      6 O         138.6215  138.0404  163.9834 O.2     1  UNL1       -0.3361
      7 C         138.5494  140.7336  161.1894 C.ar    1  UNL1        0.0423
      8 C         138.0925  140.1293  159.8948 C.ar    1  UNL1        0.0065
      9 C         138.1154  140.9456  158.6365 C.ar    1  UNL1        0.0401
     10 C         138.5953  142.3663  158.6730 C.ar    1  UNL1        0.1724
     11 C         139.0522  142.9707  159.9675 C.ar    1  UNL1        0.1725
     12 C         139.0293  142.1544  161.2258 C.ar    1  UNL1        0.0432
     13 O         138.6182  143.1826  157.4147 O.3     1  UNL1       -0.4684
     14 C         139.4659  142.7499  156.2553 C.3     1  UNL1        0.2526
     15 O         139.5321  144.3914  160.0039 O.3     1  UNL1       -0.4684
     16 C         139.9989  144.9925  161.2964 C.3     1  UNL1        0.2526
     17 S         139.3928  139.3328  167.1680 S.3     1  UNL1       -0.0653
     18 N         140.1785  141.6788  168.1799 N.ar    1  UNL1       -0.2724
     19 C         140.0736  142.3444  169.5200 C.ar    1  UNL1        0.1479
     20 C         140.6013  143.7034  169.8732 C.3     1  UNL1        0.0742
     21 N         139.3483  141.4125  170.4449 N.ar    1  UNL1       -0.1325
     22 N         139.0050  140.1709  169.6764 N.ar    1  UNL1       -0.1221
     23 C         139.5181  140.3355  168.2766 C.ar    1  UNL1        0.1973
     24 C         142.1317  143.4082  164.5132 C.ar    1  UNL1        0.1388
     25 C         140.6534  143.5596  164.7176 C.ar    1  UNL1        0.0384
     26 C         140.0024  142.9831  165.9399 C.ar    1  UNL1        0.0207
     27 C         140.8296  142.2553  166.9576 C.ar    1  UNL1        0.0671
     28 C         142.3078  142.1039  166.7532 C.ar    1  UNL1        0.0207
     29 C         142.9589  142.6804  165.5310 C.ar    1  UNL1        0.0384
     30 C         143.7446  145.1282  163.4222 C.3     1  UNL1        0.2525
     31 O         142.7827  143.9847  163.2910 O.3     1  UNL1       -0.4714
@<TRIPOS>BOND
     1    30    31    1
     2    31    24    1
     3    24    25   ar
     4    25    26   ar
     5    26    27   ar
     6    27    18    1
     7    18    19   ar
     8    19    20    1
     9    19    21   ar
    10    21    22   ar
    11    22    23   ar
    12    23    17    1
    13    17     1    1
    14     1     2    1
    15     2     3   ar
    16     3     4   ar
    17     4     7    1
    18     7     8   ar
    19     8     9   ar
    20     9    10   ar
    21    10    13    1
    22    13    14    1
    23    10    11   ar
    24    11    15    1
    25    15    16    1
    26    11    12   ar
    27     4     5   ar
    28     5     6   ar
    29    27    28   ar
    30    28    29   ar
    31    29    24   ar
    32    23    18   ar
    33     6     2   ar
    34    12     7   ar
@<TRIPOS>MOLECULE
*****
 31 34 0 0 0
SMALL
GASTEIGER

@<TRIPOS>ATOM
      1 C         143.7698  138.8661  165.1621 C.3     1  UNL1        0.1528
      2 C         143.5153  139.6268  163.8946 C.ar    1  UNL1        0.2480
      3 N         142.1700  139.9877  163.3379 N.ar    1  UNL1       -0.1900
      4 C         142.3847  140.7442  162.0604 C.ar    1  UNL1        0.2034
      5 N         143.8627  140.8508  161.8277 N.ar    1  UNL1       -0.0560
      6 O         144.5614  140.1603  162.9613 O.2     1  UNL1       -0.3361
      7 C         141.3101  141.2969  161.1719 C.ar    1  UNL1        0.0423
      8 C         141.3550  141.0440  159.6940 C.ar    1  UNL1        0.0065
      9 C         140.2804  141.5967  158.8054 C.ar    1  UNL1        0.0401
     10 C         139.1608  142.4025  159.3946 C.ar    1  UNL1        0.1724
     11 C         139.1158  142.6555  160.8724 C.ar    1  UNL1        0.1725
     12 C         140.1904  142.1027  161.7611 C.ar    1  UNL1        0.0432
     13 O         138.0862  142.9552  158.5060 O.3     1  UNL1       -0.4684
     14 C         137.8145  142.3210  157.1741 C.3     1  UNL1        0.2526
     15 O         137.9962  143.4613  161.4616 O.3     1  UNL1       -0.4684
     16 C         137.5855  143.2440  162.8878 C.3     1  UNL1        0.2526
     17 S         142.6866  138.7408  166.1920 S.3     1  UNL1       -0.0653
     18 N         142.7090  140.9983  167.6231 N.ar    1  UNL1       -0.2724
     19 C         142.8491  141.3296  169.0794 C.ar    1  UNL1        0.1479
     20 C         142.8325  142.7057  169.6761 C.3     1  UNL1        0.0742
     21 N         143.0087  140.0432  169.8342 N.ar    1  UNL1       -0.1325
     22 N         142.9672  138.9169  168.8444 N.ar    1  UNL1       -0.1221
     23 C         142.7820  139.5072  167.4779 C.ar    1  UNL1        0.1973
     24 C         142.1653  143.9583  164.2775 C.ar    1  UNL1        0.1388
     25 C         140.9668  143.3843  164.9733 C.ar    1  UNL1        0.0384
     26 C         141.1480  142.3976  166.0885 C.ar    1  UNL1        0.0207
     27 C         142.5278  141.9850  166.5079 C.ar    1  UNL1        0.0671
     28 C         143.7263  142.5590  165.8122 C.ar    1  UNL1        0.0207
     29 C         143.5450  143.5457  164.6970 C.ar    1  UNL1        0.0384
     30 C         140.6382  145.5597  162.9162 C.3     1  UNL1        0.2525
     31 O         141.9841  144.9449  163.1623 O.3     1  UNL1       -0.4714
@<TRIPOS>BOND
     1    30    31    1
     2    31    24    1
     3    24    25   ar
     4    25    26   ar
     5    26    27   ar
     6    27    18    1
     7    18    19   ar
     8    19    20    1
     9    19    21   ar
    10    21    22   ar
    11    22    23   ar
    12    23    17    1
    13    17     1    1
    14     1     2    1
    15     2     3   ar
    16     3     4   ar
    17     4     7    1
    18     7     8   ar
    19     8     9   ar
    20     9    10   ar
    21    10    13    1
    22    13    14    1
    23    10    11   ar
    24    11    15    1
    25    15    16    1
    26    11    12   ar
    27     4     5   ar
    28     5     6   ar
    29    27    28   ar
    30    28    29   ar
    31    29    24   ar
    32    23    18   ar
    33     6     2   ar
    34    12     7   ar
@<TRIPOS>MOLECULE
*****
 31 34 0 0 0
SMALL
GASTEIGER

@<TRIPOS>ATOM
      1 C         142.6320  138.3112  165.4509 C.3     1  UNL1        0.1528
      2 C         141.8172  138.7161  164.2583 C.ar    1  UNL1        0.2480
      3 N         141.8280  140.0636  163.5994 N.ar    1  UNL1       -0.1900
      4 C         140.8660  140.0247  162.4490 C.ar    1  UNL1        0.2034
      5 N         140.2608  138.6532  162.3970 N.ar    1  UNL1       -0.0560
      6 O         140.8487  137.8444  163.5152 O.2     1  UNL1       -0.3361
      7 C         140.5627  141.1583  161.5148 C.ar    1  UNL1        0.0423
      8 C         140.9635  142.5574  161.8779 C.ar    1  UNL1        0.0065
      9 C         140.6601  143.6910  160.9437 C.ar    1  UNL1        0.0401
     10 C         139.9558  143.4256  159.6462 C.ar    1  UNL1        0.1724
     11 C         139.5550  142.0265  159.2830 C.ar    1  UNL1        0.1725
     12 C         139.8583  140.8929  160.2172 C.ar    1  UNL1        0.0432
     13 O         139.6524  144.5592  158.7120 O.3     1  UNL1       -0.4684
     14 C         140.7002  145.5925  158.4214 C.3     1  UNL1        0.2526
     15 O         138.8507  141.7611  157.9855 O.3     1  UNL1       -0.4684
     16 C         137.6794  140.8249  157.9457 C.3     1  UNL1        0.2526
     17 S         143.0430  139.3396  166.4625 S.3     1  UNL1       -0.0653
     18 N         140.9128  140.0863  167.8941 N.ar    1  UNL1       -0.2724
     19 C         140.5323  140.0188  169.3434 C.ar    1  UNL1        0.1479
     20 C         139.2488  140.5131  169.9420 C.3     1  UNL1        0.0742
     21 N         141.6606  139.3702  170.0892 N.ar    1  UNL1       -0.1325
     22 N         142.7385  139.0368  169.1008 N.ar    1  UNL1       -0.1221
     23 C         142.2763  139.4794  167.7441 C.ar    1  UNL1        0.1973
     24 C         138.4042  141.8072  164.5781 C.ar    1  UNL1        0.1388
     25 C         138.1771  140.3970  165.0359 C.ar    1  UNL1        0.0384
     26 C         139.0132  139.8233  166.1412 C.ar    1  UNL1        0.0207
     27 C         140.0766  140.6599  166.7888 C.ar    1  UNL1        0.0671
     28 C         140.3037  142.0702  166.3310 C.ar    1  UNL1        0.0207
     29 C         139.4675  142.6438  165.2257 C.ar    1  UNL1        0.0384
     30 C         137.6811  143.8354  163.1244 C.3     1  UNL1        0.2525
     31 O         137.5680  142.3809  163.4728 O.3     1  UNL1       -0.4714
@<TRIPOS>BOND
     1    30    31    1
     2    31    24    1
     3    24    25   ar
     4    25    26   ar
     5    26    27   ar
     6    27    18    1
     7    18    19   ar
     8    19    20    1
     9    19    21   ar
    10    21    22   ar
    11    22    23   ar
    12    23    17    1
    13    17     1    1
    14     1     2    1
    15     2     3   ar
    16     3     4   ar
    17     4     7    1
    18     7     8   ar
    19     8     9   ar
    20     9    10   ar
    21    10    13    1
    22    13    14    1
    23    10    11   ar
    24    11    15    1
    25    15    16    1
    26    11    12   ar
    27     4     5   ar
    28     5     6   ar
    29    27    28   ar
    30    28    29   ar
    31    29    24   ar
    32    23    18   ar
    33     6     2   ar
    34    12     7   ar
