@<TRIPOS>MOLECULE
*****
 27 28 0 0 0
SMALL
GASTEIGER

@<TRIPOS>ATOM
      1 C         141.6324  143.7427  162.2472 C.ar    1  UNL1        0.1255
      2 C         141.7830  142.2656  162.0345 C.ar    1  UNL1        0.0233
      3 C         141.7323  141.3301  163.2060 C.ar    1  UNL1        0.0383
      4 C         141.5311  141.8719  164.5902 C.ar    1  UNL1        0.1386
      5 C         141.3805  143.3490  164.8029 C.ar    1  UNL1        0.0383
      6 C         141.4312  144.2845  163.6314 C.ar    1  UNL1        0.0233
      7 S         141.6831  144.6782  161.0757 S.O2    1  UNL1        0.0768
      8 O         140.5456  145.4657  161.6553 O.2     1  UNL1       -0.1498
      9 O         142.8206  143.8906  160.4961 O.2     1  UNL1       -0.1498
     10 N         140.9618  146.2660  157.5108 N.am    1  UNL1       -0.2894
     11 C         140.9112  145.3305  158.6823 C.2     1  UNL1        0.3194
     12 O         140.0378  144.1120  158.6318 O.2     1  UNL1       -0.2512
     13 N         141.7338  145.6136  159.9042 N.am    1  UNL1       -0.1693
     14 H         141.5350  147.0657  157.5439 H       1  UNL1        0.1509
     15 H         142.3070  146.4133  159.9373 H       1  UNL1        0.1781
     16 C         138.9368  146.8258  155.9823 C.3     1  UNL1        0.0213
     17 C         140.1392  145.9829  156.2888 C.3     1  UNL1        0.0732
     18 C         140.5188  144.8569  155.3734 C.3     1  UNL1        0.0213
     19 O         141.4804  140.9364  165.7617 O.3     1  UNL1       -0.4754
     20 C         140.4414  139.8559  165.8142 C.3     1  UNL1        0.2068
     21 C         138.9867  140.2166  165.8767 C.3     1  UNL1        0.0646
     22 C         138.1552  140.1983  164.6283 C.3     1  UNL1        0.0759
     23 N         138.0401  141.4340  163.7857 N.3     1  UNL1       -0.2726
     24 C         137.8085  142.8272  164.2909 C.3     1  UNL1        0.0721
     25 C         137.7617  143.7477  163.1075 C.3     1  UNL1        0.0188
     26 C         137.9644  142.9233  161.8708 C.3     1  UNL1        0.0188
     27 C         138.1364  141.4934  162.2900 C.3     1  UNL1        0.0721
@<TRIPOS>BOND
     1    16    17    1
     2    17    18    1
     3    17    10    1
     4    10    11   am
     5    11    12    2
     6    11    13   am
     7    13     7    1
     8     7     8    2
     9     7     9    2
    10     7     1    1
    11     1     2   ar
    12     2     3   ar
    13     3     4   ar
    14     4    19    1
    15    19    20    1
    16    20    21    1
    17    21    22    1
    18    22    23    1
    19    23    24    1
    20    24    25    1
    21    25    26    1
    22    26    27    1
    23     4     5   ar
    24     5     6   ar
    25     6     1   ar
    26    27    23    1
    27    10    14    1
    28    13    15    1
@<TRIPOS>MOLECULE
*****
 27 28 0 0 0
SMALL
GASTEIGER

@<TRIPOS>ATOM
      1 C         141.3190  143.9286  163.7294 C.ar    1  UNL1        0.1255
      2 C         142.3463  143.1310  164.4766 C.ar    1  UNL1        0.0233
      3 C         142.0183  142.5610  165.8248 C.ar    1  UNL1        0.0383
      4 C         140.6630  142.7887  166.4258 C.ar    1  UNL1        0.1386
      5 C         139.6356  143.5863  165.6786 C.ar    1  UNL1        0.0383
      6 C         139.9636  144.1563  164.3304 C.ar    1  UNL1        0.0233
      7 S         141.6470  144.4985  162.3813 S.O2    1  UNL1        0.0768
      8 O         142.2964  143.2037  161.9919 O.2     1  UNL1       -0.1498
      9 O         140.9975  145.7934  162.7706 O.2     1  UNL1       -0.1498
     10 N         141.2904  145.5808  158.5797 N.am    1  UNL1       -0.2894
     11 C         140.9624  145.0108  159.9279 C.2     1  UNL1        0.3194
     12 O         139.6218  144.3832  160.1709 O.2     1  UNL1       -0.2512
     13 N         141.9750  145.0685  161.0331 N.am    1  UNL1       -0.1693
     14 H         142.1703  145.9927  158.4202 H       1  UNL1        0.1509
     15 H         142.8548  145.4804  160.8736 H       1  UNL1        0.1781
     16 C         139.9544  144.2121  156.8214 C.3     1  UNL1        0.0213
     17 C         140.2778  145.5231  157.4746 C.3     1  UNL1        0.0732
     18 C         139.5887  146.7764  157.0226 C.3     1  UNL1        0.0213
     19 O         140.3350  142.2188  167.7740 O.3     1  UNL1       -0.4754
     20 C         140.2734  140.7323  167.9651 C.3     1  UNL1        0.2068
     21 C         139.3250  139.9093  167.1446 C.3     1  UNL1        0.0646
     22 C         139.7677  139.3460  165.8267 C.3     1  UNL1        0.0759
     23 N         139.3734  140.0268  164.5496 N.3     1  UNL1       -0.2726
     24 C         140.2682  140.2797  163.3726 C.3     1  UNL1        0.0721
     25 C         139.4630  140.9835  162.3208 C.3     1  UNL1        0.0188
     26 C         138.0704  141.1656  162.8478 C.3     1  UNL1        0.0188
     27 C         138.0151  140.5743  164.2252 C.3     1  UNL1        0.0721
@<TRIPOS>BOND
     1    16    17    1
     2    17    18    1
     3    17    10    1
     4    10    11   am
     5    11    12    2
     6    11    13   am
     7    13     7    1
     8     7     8    2
     9     7     9    2
    10     7     1    1
    11     1     2   ar
    12     2     3   ar
    13     3     4   ar
    14     4    19    1
    15    19    20    1
    16    20    21    1
    17    21    22    1
    18    22    23    1
    19    23    24    1
    20    24    25    1
    21    25    26    1
    22    26    27    1
    23     4     5   ar
    24     5     6   ar
    25     6     1   ar
    26    27    23    1
    27    10    14    1
    28    13    15    1
@<TRIPOS>MOLECULE
*****
 27 28 0 0 0
SMALL
GASTEIGER

@<TRIPOS>ATOM
      1 C         140.8127  143.9099  162.5028 C.ar    1  UNL1        0.1255
      2 C         140.4240  142.4692  162.3508 C.ar    1  UNL1        0.0233
      3 C         139.9814  141.6814  163.5481 C.ar    1  UNL1        0.0383
      4 C         139.9275  142.3344  164.8974 C.ar    1  UNL1        0.1386
      5 C         140.3162  143.7752  165.0494 C.ar    1  UNL1        0.0383
      6 C         140.7588  144.5629  163.8521 C.ar    1  UNL1        0.0233
      7 S         141.2553  144.6976  161.3055 S.O2    1  UNL1        0.0768
      8 O         140.4037  145.8500  161.7488 O.2     1  UNL1       -0.1498
      9 O         142.1070  143.5452  160.8621 O.2     1  UNL1       -0.1498
     10 N         141.3478  146.2134  157.6389 N.am    1  UNL1       -0.2894
     11 C         140.9052  145.4257  158.8362 C.2     1  UNL1        0.3194
     12 O         139.6696  144.5783  158.7616 O.2     1  UNL1       -0.2512
     13 N         141.6980  145.4853  160.1081 N.am    1  UNL1       -0.1693
     14 H         142.1587  146.7696  157.6879 H       1  UNL1        0.1509
     15 H         142.5089  146.0415  160.1571 H       1  UNL1        0.1781
     16 C         140.9698  145.2214  155.2676 C.3     1  UNL1        0.0213
     17 C         140.5549  146.1538  156.3669 C.3     1  UNL1        0.0732
     18 C         139.3472  147.0265  156.1943 C.3     1  UNL1        0.0213
     19 O         139.4848  141.5467  166.0947 O.3     1  UNL1       -0.4754
     20 C         140.4994  140.8430  166.9464 C.3     1  UNL1        0.2068
     21 C         141.4045  139.8130  166.3381 C.3     1  UNL1        0.0646
     22 C         142.8777  140.0762  166.2351 C.3     1  UNL1        0.0759
     23 N         143.3736  141.2897  165.5062 N.3     1  UNL1       -0.2726
     24 C         143.6672  142.6272  166.1184 C.3     1  UNL1        0.0721
     25 C         144.1380  143.5430  165.0277 C.3     1  UNL1        0.0188
     26 C         144.1354  142.7715  163.7413 C.3     1  UNL1        0.0188
     27 C         143.6629  141.3789  164.0371 C.3     1  UNL1        0.0721
@<TRIPOS>BOND
     1    16    17    1
     2    17    18    1
     3    17    10    1
     4    10    11   am
     5    11    12    2
     6    11    13   am
     7    13     7    1
     8     7     8    2
     9     7     9    2
    10     7     1    1
    11     1     2   ar
    12     2     3   ar
    13     3     4   ar
    14     4    19    1
    15    19    20    1
    16    20    21    1
    17    21    22    1
    18    22    23    1
    19    23    24    1
    20    24    25    1
    21    25    26    1
    22    26    27    1
    23     4     5   ar
    24     5     6   ar
    25     6     1   ar
    26    27    23    1
    27    10    14    1
    28    13    15    1
@<TRIPOS>MOLECULE
*****
 27 28 0 0 0
SMALL
GASTEIGER

@<TRIPOS>ATOM
      1 C         143.5690  139.6475  164.1459 C.ar    1  UNL1        0.1255
      2 C         143.4486  141.0545  164.6518 C.ar    1  UNL1        0.0233
      3 C         143.0132  141.3089  166.0645 C.ar    1  UNL1        0.0383
      4 C         142.6981  140.1564  166.9713 C.ar    1  UNL1        0.1386
      5 C         142.8184  138.7494  166.4654 C.ar    1  UNL1        0.0383
      6 C         143.2539  138.4950  165.0527 C.ar    1  UNL1        0.0233
      7 S         144.0044  139.3931  162.7332 S.O2    1  UNL1        0.0768
      8 O         144.8233  140.6496  162.7594 O.2     1  UNL1       -0.1498
      9 O         143.1855  138.1366  162.7071 O.2     1  UNL1       -0.1498
     10 N         144.0606  139.4136  158.7651 N.am    1  UNL1       -0.2894
     11 C         143.6252  139.6681  160.1778 C.2     1  UNL1        0.3194
     12 O         142.3750  140.4519  160.4476 O.2     1  UNL1       -0.2512
     13 N         144.4399  139.1387  161.3206 N.am    1  UNL1       -0.1693
     14 H         144.8811  138.8992  158.5880 H       1  UNL1        0.1509
     15 H         145.2604  138.6243  161.1435 H       1  UNL1        0.1781
     16 C         143.5070  141.3209  157.0900 C.3     1  UNL1        0.0213
     17 C         143.2459  139.9431  157.6222 C.3     1  UNL1        0.0732
     18 C         142.1701  139.0946  157.0118 C.3     1  UNL1        0.0213
     19 O         142.2627  140.4108  168.3840 O.3     1  UNL1       -0.4754
     20 C         140.8473  140.1313  168.7944 C.3     1  UNL1        0.2068
     21 C         139.7149  140.5024  167.8833 C.3     1  UNL1        0.0646
     22 C         138.9529  139.4320  167.1595 C.3     1  UNL1        0.0759
     23 N         139.2840  139.1103  165.7324 N.3     1  UNL1       -0.2726
     24 C         139.7080  140.0939  164.6823 C.3     1  UNL1        0.0721
     25 C         139.9353  139.3400  163.4056 C.3     1  UNL1        0.0188
     26 C         139.6518  137.8903  163.6666 C.3     1  UNL1        0.0188
     27 C         139.2494  137.7484  165.1047 C.3     1  UNL1        0.0721
@<TRIPOS>BOND
     1    16    17    1
     2    17    18    1
     3    17    10    1
     4    10    11   am
     5    11    12    2
     6    11    13   am
     7    13     7    1
     8     7     8    2
     9     7     9    2
    10     7     1    1
    11     1     2   ar
    12     2     3   ar
    13     3     4   ar
    14     4    19    1
    15    19    20    1
    16    20    21    1
    17    21    22    1
    18    22    23    1
    19    23    24    1
    20    24    25    1
    21    25    26    1
    22    26    27    1
    23     4     5   ar
    24     5     6   ar
    25     6     1   ar
    26    27    23    1
    27    10    14    1
    28    13    15    1
@<TRIPOS>MOLECULE
*****
 27 28 0 0 0
SMALL
GASTEIGER

@<TRIPOS>ATOM
      1 C         141.5448  143.5495  162.0949 C.ar    1  UNL1        0.1255
      2 C         142.1232  143.8689  163.4414 C.ar    1  UNL1        0.0233
      3 C         142.0478  142.8598  164.5487 C.ar    1  UNL1        0.0383
      4 C         141.3939  141.5312  164.3093 C.ar    1  UNL1        0.1386
      5 C         140.8155  141.2118  162.9627 C.ar    1  UNL1        0.0383
      6 C         140.8909  142.2210  161.8555 C.ar    1  UNL1        0.0233
      7 S         141.6202  144.5587  160.9876 S.O2    1  UNL1        0.0768
      8 O         140.3257  145.1605  161.4480 O.2     1  UNL1       -0.1498
      9 O         142.9148  143.9568  160.5273 O.2     1  UNL1       -0.1498
     10 N         141.1094  146.2966  157.4565 N.am    1  UNL1       -0.2894
     11 C         141.0340  145.2875  158.5638 C.2     1  UNL1        0.3194
     12 O         140.2968  143.9979  158.3543 O.2     1  UNL1       -0.2512
     13 N         141.6956  145.5678  159.8804 N.am    1  UNL1       -0.1693
     14 H         141.5932  147.1430  157.5940 H       1  UNL1        0.1509
     15 H         142.1794  146.4142  160.0179 H       1  UNL1        0.1781
     16 C         139.0932  146.5890  155.8442 C.3     1  UNL1        0.0213
     17 C         140.4477  146.0162  156.1399 C.3     1  UNL1        0.0732
     18 C         141.1404  145.1631  155.1190 C.3     1  UNL1        0.0213
     19 O         141.3185  140.5221  165.4165 O.3     1  UNL1       -0.4754
     20 C         142.5684  140.0911  166.1249 C.3     1  UNL1        0.2068
     21 C         143.3314  138.8946  165.6388 C.3     1  UNL1        0.0646
     22 C         144.6329  139.0780  164.9158 C.3     1  UNL1        0.0759
     23 N         144.7314  140.0599  163.7861 N.3     1  UNL1       -0.2726
     24 C         144.1682  139.8776  162.4079 C.3     1  UNL1        0.0721
     25 C         144.4991  141.1015  161.6063 C.3     1  UNL1        0.0188
     26 C         145.2668  142.0402  162.4891 C.3     1  UNL1        0.0188
     27 C         145.4103  141.3965  163.8363 C.3     1  UNL1        0.0721
@<TRIPOS>BOND
     1    16    17    1
     2    17    18    1
     3    17    10    1
     4    10    11   am
     5    11    12    2
     6    11    13   am
     7    13     7    1
     8     7     8    2
     9     7     9    2
    10     7     1    1
    11     1     2   ar
    12     2     3   ar
    13     3     4   ar
    14     4    19    1
    15    19    20    1
    16    20    21    1
    17    21    22    1
    18    22    23    1
    19    23    24    1
    20    24    25    1
    21    25    26    1
    22    26    27    1
    23     4     5   ar
    24     5     6   ar
    25     6     1   ar
    26    27    23    1
    27    10    14    1
    28    13    15    1
@<TRIPOS>MOLECULE
*****
 27 28 0 0 0
SMALL
GASTEIGER

@<TRIPOS>ATOM
      1 C         138.5820  139.1463  163.5476 C.ar    1  UNL1        0.1255
      2 C         138.9907  137.9063  162.8091 C.ar    1  UNL1        0.0233
      3 C         139.1529  137.9403  161.3183 C.ar    1  UNL1        0.0383
      4 C         138.9063  139.2143  160.5659 C.ar    1  UNL1        0.1386
      5 C         138.4976  140.4543  161.3044 C.ar    1  UNL1        0.0383
      6 C         138.3354  140.4203  162.7952 C.ar    1  UNL1        0.0233
      7 S         138.4198  139.1123  165.0384 S.O2    1  UNL1        0.0768
      8 O         138.9854  137.7233  165.0682 O.2     1  UNL1       -0.1498
      9 O         137.8543  140.5012  165.0085 O.2     1  UNL1       -0.1498
     10 N         139.0950  139.7356  168.8991 N.am    1  UNL1       -0.2894
     11 C         139.2572  139.7696  167.4083 C.2     1  UNL1        0.3194
     12 O         140.4190  140.4950  166.7966 O.2     1  UNL1       -0.2512
     13 N         138.2577  139.0783  166.5292 N.am    1  UNL1       -0.1693
     14 H         138.3326  139.2595  169.3006 H       1  UNL1        0.1509
     15 H         137.4952  138.6022  166.9307 H       1  UNL1        0.1781
     16 C         139.8552  141.8409  170.2183 C.3     1  UNL1        0.0213
     17 C         140.0947  140.4270  169.7782 C.3     1  UNL1        0.0732
     18 C         141.3337  139.7046  170.2173 C.3     1  UNL1        0.0213
     19 O         139.0685  139.2483  159.0751 O.3     1  UNL1       -0.4754
     20 C         140.4370  139.3634  158.4720 C.3     1  UNL1        0.2068
     21 C         141.5333  140.0557  159.2263 C.3     1  UNL1        0.0646
     22 C         142.5250  139.2520  160.0141 C.3     1  UNL1        0.0759
     23 N         142.4637  139.2458  161.5128 N.3     1  UNL1       -0.2726
     24 C         142.7679  138.0773  162.4028 C.3     1  UNL1        0.0721
     25 C         142.5797  138.5162  163.8248 C.3     1  UNL1        0.0188
     26 C         142.1592  139.9560  163.8136 C.3     1  UNL1        0.0188
     27 C         142.0875  140.4069  162.3847 C.3     1  UNL1        0.0721
@<TRIPOS>BOND
     1    16    17    1
     2    17    18    1
     3    17    10    1
     4    10    11   am
     5    11    12    2
     6    11    13   am
     7    13     7    1
     8     7     8    2
     9     7     9    2
    10     7     1    1
    11     1     2   ar
    12     2     3   ar
    13     3     4   ar
    14     4    19    1
    15    19    20    1
    16    20    21    1
    17    21    22    1
    18    22    23    1
    19    23    24    1
    20    24    25    1
    21    25    26    1
    22    26    27    1
    23     4     5   ar
    24     5     6   ar
    25     6     1   ar
    26    27    23    1
    27    10    14    1
    28    13    15    1
@<TRIPOS>MOLECULE
*****
 27 28 0 0 0
SMALL
GASTEIGER

@<TRIPOS>ATOM
      1 C         138.3624  139.3138  163.2128 C.ar    1  UNL1        0.1255
      2 C         138.0562  140.5359  164.0269 C.ar    1  UNL1        0.0233
      3 C         138.1380  140.4799  165.5236 C.ar    1  UNL1        0.0383
      4 C         138.5260  139.2019  166.2063 C.ar    1  UNL1        0.1386
      5 C         138.8322  137.9799  165.3922 C.ar    1  UNL1        0.0383
      6 C         138.7504  138.0358  163.8955 C.ar    1  UNL1        0.0233
      7 S         138.2806  139.3697  161.7161 S.O2    1  UNL1        0.0768
      8 O         138.8998  140.7358  161.7333 O.2     1  UNL1       -0.1498
      9 O         137.6613  138.0036  161.6989 O.2     1  UNL1       -0.1498
     10 N         139.2694  139.0035  157.8901 N.am    1  UNL1       -0.2894
     11 C         139.3512  138.9475  159.3869 C.2     1  UNL1        0.3194
     12 O         140.5856  138.4135  160.0511 O.2     1  UNL1       -0.2512
     13 N         138.1987  139.4257  160.2194 N.am    1  UNL1       -0.1693
     14 H         138.4593  139.3540  157.4542 H       1  UNL1        0.1509
     15 H         137.3886  139.7762  159.7834 H       1  UNL1        0.1781
     16 C         141.5868  139.4339  156.7971 C.3     1  UNL1        0.0213
     17 C         140.4220  138.5253  157.0576 C.3     1  UNL1        0.0732
     18 C         140.4098  137.1387  156.4857 C.3     1  UNL1        0.0213
     19 O         138.6078  139.1460  167.7030 O.3     1  UNL1       -0.4754
     20 C         139.5949  140.0078  168.4329 C.3     1  UNL1        0.2068
     21 C         140.7301  140.6444  167.6872 C.3     1  UNL1        0.0646
     22 C         141.8783  139.8052  167.2099 C.3     1  UNL1        0.0759
     23 N         142.0426  139.5219  165.7461 N.3     1  UNL1       -0.2726
     24 C         141.7665  140.4807  164.6261 C.3     1  UNL1        0.0721
     25 C         142.0651  139.7814  163.3331 C.3     1  UNL1        0.0188
     26 C         142.5257  138.3904  163.6540 C.3     1  UNL1        0.0188
     27 C         142.5117  138.2301  165.1453 C.3     1  UNL1        0.0721
@<TRIPOS>BOND
     1    16    17    1
     2    17    18    1
     3    17    10    1
     4    10    11   am
     5    11    12    2
     6    11    13   am
     7    13     7    1
     8     7     8    2
     9     7     9    2
    10     7     1    1
    11     1     2   ar
    12     2     3   ar
    13     3     4   ar
    14     4    19    1
    15    19    20    1
    16    20    21    1
    17    21    22    1
    18    22    23    1
    19    23    24    1
    20    24    25    1
    21    25    26    1
    22    26    27    1
    23     4     5   ar
    24     5     6   ar
    25     6     1   ar
    26    27    23    1
    27    10    14    1
    28    13    15    1
@<TRIPOS>MOLECULE
*****
 27 28 0 0 0
SMALL
GASTEIGER

@<TRIPOS>ATOM
      1 C         141.4551  138.2044  161.5119 C.ar    1  UNL1        0.1255
      2 C         139.9655  138.1670  161.3405 C.ar    1  UNL1        0.0233
      3 C         139.0822  137.8742  162.5170 C.ar    1  UNL1        0.0383
      4 C         139.6887  137.6187  163.8649 C.ar    1  UNL1        0.1386
      5 C         141.1784  137.6561  164.0363 C.ar    1  UNL1        0.0383
      6 C         142.0616  137.9489  162.8598 C.ar    1  UNL1        0.0233
      7 S         142.3383  138.4972  160.3354 S.O2    1  UNL1        0.0768
      8 O         141.3924  139.5741  159.8932 O.2     1  UNL1       -0.1498
      9 O         143.2843  137.4203  160.7775 O.2     1  UNL1       -0.1498
     10 N         143.8729  138.3807  156.6773 N.am    1  UNL1       -0.2894
     11 C         142.9897  138.0879  157.8538 C.2     1  UNL1        0.3194
     12 O         141.8745  137.0929  157.7252 O.2     1  UNL1       -0.2512
     13 N         143.2216  138.7900  159.1588 N.am    1  UNL1       -0.1693
     14 H         144.6048  139.0337  156.7616 H       1  UNL1        0.1509
     15 H         143.9534  139.4430  159.2432 H       1  UNL1        0.1781
     16 C         142.9844  138.4051  154.2359 C.3     1  UNL1        0.0213
     17 C         143.6409  137.6785  155.3722 C.3     1  UNL1        0.0732
     18 C         144.0655  136.2498  155.2034 C.3     1  UNL1        0.0213
     19 O         138.8055  137.3259  165.0414 O.3     1  UNL1       -0.4754
     20 C         138.4472  138.4214  166.0013 C.3     1  UNL1        0.2068
     21 C         138.1947  139.8103  165.4941 C.3     1  UNL1        0.0646
     22 C         139.2546  140.8630  165.6310 C.3     1  UNL1        0.0759
     23 N         138.9600  142.2796  165.2356 N.3     1  UNL1       -0.2726
     24 C         139.7558  143.4886  165.6296 C.3     1  UNL1        0.0721
     25 C         139.1056  144.6922  165.0143 C.3     1  UNL1        0.0188
     26 C         137.9080  144.2271  164.2400 C.3     1  UNL1        0.0188
     27 C         137.8181  142.7361  164.3768 C.3     1  UNL1        0.0721
@<TRIPOS>BOND
     1    16    17    1
     2    17    18    1
     3    17    10    1
     4    10    11   am
     5    11    12    2
     6    11    13   am
     7    13     7    1
     8     7     8    2
     9     7     9    2
    10     7     1    1
    11     1     2   ar
    12     2     3   ar
    13     3     4   ar
    14     4    19    1
    15    19    20    1
    16    20    21    1
    17    21    22    1
    18    22    23    1
    19    23    24    1
    20    24    25    1
    21    25    26    1
    22    26    27    1
    23     4     5   ar
    24     5     6   ar
    25     6     1   ar
    26    27    23    1
    27    10    14    1
    28    13    15    1
@<TRIPOS>MOLECULE
*****
 27 28 0 0 0
SMALL
GASTEIGER

@<TRIPOS>ATOM
      1 C         138.4211  139.6687  163.3187 C.ar    1  UNL1        0.1255
      2 C         138.5895  140.9523  164.0764 C.ar    1  UNL1        0.0233
      3 C         139.2418  140.9458  165.4271 C.ar    1  UNL1        0.0383
      4 C         139.7257  139.6558  166.0202 C.ar    1  UNL1        0.1386
      5 C         139.5572  138.3723  165.2625 C.ar    1  UNL1        0.0383
      6 C         138.9050  138.3787  163.9117 C.ar    1  UNL1        0.0233
      7 S         137.7689  139.6752  161.9679 S.O2    1  UNL1        0.0768
      8 O         138.2465  138.2732  161.7306 O.2     1  UNL1       -0.1498
      9 O         137.2913  141.0772  162.2053 O.2     1  UNL1       -0.1498
     10 N         137.1943  140.2522  158.0838 N.am    1  UNL1       -0.2894
     11 C         137.8466  140.2458  159.4345 C.2     1  UNL1        0.3194
     12 O         139.2289  140.8035  159.6025 O.2     1  UNL1       -0.2512
     13 N         137.1166  139.6817  160.6172 N.am    1  UNL1       -0.1693
     14 H         136.2871  139.8862  157.9735 H       1  UNL1        0.1509
     15 H         136.2093  139.3156  160.5069 H       1  UNL1        0.1781
     16 C         138.8263  139.9367  156.0870 C.3     1  UNL1        0.0213
     17 C         137.9244  140.8164  156.9010 C.3     1  UNL1        0.0732
     18 C         137.7526  142.2602  156.5324 C.3     1  UNL1        0.0213
     19 O         140.3779  139.6494  167.3709 O.3     1  UNL1       -0.4754
     20 C         141.8608  139.8418  167.4886 C.3     1  UNL1        0.2068
     21 C         142.5815  139.3808  168.7207 C.3     1  UNL1        0.0646
     22 C         142.5982  140.2444  169.9472 C.3     1  UNL1        0.0759
     23 N         141.6840  141.4297  170.0423 N.3     1  UNL1       -0.2726
     24 C         141.9952  142.8225  169.5806 C.3     1  UNL1        0.0721
     25 C         140.8015  143.6841  169.8687 C.3     1  UNL1        0.0188
     26 C         139.7525  142.8237  170.5085 C.3     1  UNL1        0.0188
     27 C         140.2979  141.4304  170.6157 C.3     1  UNL1        0.0721
@<TRIPOS>BOND
     1    16    17    1
     2    17    18    1
     3    17    10    1
     4    10    11   am
     5    11    12    2
     6    11    13   am
     7    13     7    1
     8     7     8    2
     9     7     9    2
    10     7     1    1
    11     1     2   ar
    12     2     3   ar
    13     3     4   ar
    14     4    19    1
    15    19    20    1
    16    20    21    1
    17    21    22    1
    18    22    23    1
    19    23    24    1
    20    24    25    1
    21    25    26    1
    22    26    27    1
    23     4     5   ar
    24     5     6   ar
    25     6     1   ar
    26    27    23    1
    27    10    14    1
    28    13    15    1
