@<TRIPOS>MOLECULE
*****
 33 37 0 0 0
SMALL
GASTEIGER

@<TRIPOS>ATOM
      1 N         142.8965  138.8350  163.5368 N.3     1  UNL1       -0.2726
      2 C         144.0509  139.1654  162.6378 C.3     1  UNL1        0.0721
      3 C         144.6475  140.4595  163.1063 C.3     1  UNL1        0.0190
      4 C         143.8618  140.9288  164.2948 C.3     1  UNL1        0.0201
      5 C         144.6574  142.1794  164.5249 C.3     1  UNL1        0.0061
      6 C         143.5029  141.8490  165.4238 C.3     1  UNL1        0.0237
      7 C         142.7796  139.9248  164.5608 C.3     1  UNL1        0.0724
      8 C         142.6293  142.1894  166.5946 C.ar    1  UNL1       -0.0225
      9 C         141.1792  142.5083  166.3807 C.ar    1  UNL1       -0.0043
     10 C         140.3056  142.8487  167.5515 C.ar    1  UNL1        0.0035
     11 C         140.8819  142.8702  168.9362 C.ar    1  UNL1        0.0714
     12 C         142.3320  142.5514  169.1500 C.ar    1  UNL1        0.0035
     13 C         143.2057  142.2109  167.9792 C.ar    1  UNL1       -0.0043
     14 C         140.0083  143.2107  170.1070 C.3     1  UNL1        0.4186
     15 F         139.1345  143.5511  171.2778 F       1  UNL1       -0.1659
     16 F         140.4947  144.6287  170.0576 F       1  UNL1       -0.1659
     17 F         139.5219  141.7926  170.1563 F       1  UNL1       -0.1659
     18 C         142.0138  137.6268  163.4304 C.3     1  UNL1        0.0730
     19 C         141.2535  137.1454  164.6304 C.3     1  UNL1        0.0294
     20 C         139.8434  137.6033  164.8583 C.3     1  UNL1        0.0666
     21 S         139.0748  138.2481  163.7432 S.3     1  UNL1       -0.0756
     22 C         140.3875  140.2951  161.5669 C.3     1  UNL1        0.1340
     23 N         139.5030  140.6785  162.7161 N.ar    1  UNL1       -0.2872
     24 C         138.8997  139.7376  163.7165 C.ar    1  UNL1        0.1933
     25 N         138.0904  140.5477  164.6854 N.ar    1  UNL1       -0.1221
     26 N         138.1936  141.9892  164.2839 N.ar    1  UNL1       -0.1266
     27 C         139.0667  142.0702  163.0668 C.ar    1  UNL1        0.1862
     28 C         139.4381  143.3227  162.3299 C.ar    1  UNL1        0.1362
     29 C         139.2769  143.3922  160.8402 C.ar    1  UNL1        0.1211
     30 N         139.6484  144.6448  160.1032 N.ar    1  UNL1       -0.2390
     31 C         140.1810  145.8279  160.8561 C.ar    1  UNL1        0.1195
     32 C         140.3422  145.7584  162.3458 C.ar    1  UNL1        0.1196
     33 N         139.9707  144.5057  163.0827 N.ar    1  UNL1       -0.2375
@<TRIPOS>BOND
     1    22    23    1
     2    23    24   ar
     3    24    21    1
     4    21    20    1
     5    20    19    1
     6    19    18    1
     7    18     1    1
     8     1     2    1
     9     2     3    1
    10     4     3    1
    11     4     5    1
    12     5     6    1
    13     6     8    1
    14     8     9   ar
    15     9    10   ar
    16    10    11   ar
    17    11    14    1
    18    14    15    1
    19    14    16    1
    20    14    17    1
    21    11    12   ar
    22    12    13   ar
    23     4     7    1
    24    24    25   ar
    25    25    26   ar
    26    26    27   ar
    27    27    28    1
    28    28    29   ar
    29    29    30   ar
    30    30    31   ar
    31    31    32   ar
    32    32    33   ar
    33    27    23   ar
    34    33    28   ar
    35     7     1    1
    36     6     4    1
    37    13     8   ar
@<TRIPOS>MOLECULE
*****
 33 37 0 0 0
SMALL
GASTEIGER

@<TRIPOS>ATOM
      1 N         143.2664  143.3526  162.0279 N.3     1  UNL1       -0.2726
      2 C         144.5063  142.8910  161.3211 C.3     1  UNL1        0.0721
      3 C         145.1859  141.8765  162.1922 C.3     1  UNL1        0.0190
      4 C         144.3661  141.7111  163.4374 C.3     1  UNL1        0.0201
      5 C         145.2560  140.6864  164.0761 C.3     1  UNL1        0.0061
      6 C         144.0162  141.1480  164.7829 C.3     1  UNL1        0.0237
      7 C         143.1798  142.6234  163.3359 C.3     1  UNL1        0.0724
      8 C         143.0983  141.0894  165.9678 C.ar    1  UNL1       -0.0225
      9 C         143.1499  142.1664  167.0106 C.ar    1  UNL1       -0.0043
     10 C         142.2321  142.1078  168.1955 C.ar    1  UNL1        0.0035
     11 C         141.2625  140.9722  168.3376 C.ar    1  UNL1        0.0714
     12 C         141.2108  139.8951  167.2949 C.ar    1  UNL1        0.0035
     13 C         142.1287  139.9537  166.1100 C.ar    1  UNL1       -0.0043
     14 C         140.3446  140.9136  169.5225 C.3     1  UNL1        0.4186
     15 F         139.4267  140.8550  170.7075 F       1  UNL1       -0.1659
     16 F         140.8290  139.5275  169.8293 F       1  UNL1       -0.1659
     17 F         139.8602  142.2997  169.2158 F       1  UNL1       -0.1659
     18 C         142.2854  144.3656  161.5166 C.3     1  UNL1        0.0730
     19 C         141.4640  145.1679  162.4817 C.3     1  UNL1        0.0294
     20 C         140.0989  145.6479  162.0867 C.3     1  UNL1        0.0666
     21 S         138.8897  145.1665  162.8323 S.3     1  UNL1       -0.0756
     22 C         139.8031  142.8813  164.9754 C.3     1  UNL1        0.1340
     23 N         138.9305  142.6654  163.7746 N.ar    1  UNL1       -0.2872
     24 C         138.5106  143.7158  162.7895 C.ar    1  UNL1        0.1933
     25 N         137.6451  143.0609  161.7541 N.ar    1  UNL1       -0.1221
     26 N         137.5301  141.6057  162.0993 N.ar    1  UNL1       -0.1266
     27 C         138.3244  141.3612  163.3480 C.ar    1  UNL1        0.1862
     28 C         138.4846  140.0439  164.0473 C.ar    1  UNL1        0.1362
     29 C         139.1315  138.8917  163.3375 C.ar    1  UNL1        0.1211
     30 N         139.2917  137.5744  164.0368 N.ar    1  UNL1       -0.2390
     31 C         138.8050  137.4094  165.4461 C.ar    1  UNL1        0.1195
     32 C         138.1581  138.5616  166.1559 C.ar    1  UNL1        0.1196
     33 N         137.9980  139.8789  165.4565 N.ar    1  UNL1       -0.2375
@<TRIPOS>BOND
     1    22    23    1
     2    23    24   ar
     3    24    21    1
     4    21    20    1
     5    20    19    1
     6    19    18    1
     7    18     1    1
     8     1     2    1
     9     2     3    1
    10     4     3    1
    11     4     5    1
    12     5     6    1
    13     6     8    1
    14     8     9   ar
    15     9    10   ar
    16    10    11   ar
    17    11    14    1
    18    14    15    1
    19    14    16    1
    20    14    17    1
    21    11    12   ar
    22    12    13   ar
    23     4     7    1
    24    24    25   ar
    25    25    26   ar
    26    26    27   ar
    27    27    28    1
    28    28    29   ar
    29    29    30   ar
    30    30    31   ar
    31    31    32   ar
    32    32    33   ar
    33    27    23   ar
    34    33    28   ar
    35     7     1    1
    36     6     4    1
    37    13     8   ar
@<TRIPOS>MOLECULE
*****
 33 37 0 0 0
SMALL
GASTEIGER

@<TRIPOS>ATOM
      1 N         144.2487  142.5446  162.9775 N.3     1  UNL1       -0.2726
      2 C         144.9544  141.3647  162.3776 C.3     1  UNL1        0.0721
      3 C         144.7662  140.1951  163.2977 C.3     1  UNL1        0.0190
      4 C         143.9443  140.6521  164.4663 C.3     1  UNL1        0.0201
      5 C         143.9272  139.3292  165.1730 C.3     1  UNL1        0.0061
      6 C         143.2216  140.5090  165.7729 C.3     1  UNL1        0.0237
      7 C         143.6244  142.1042  164.2684 C.3     1  UNL1        0.0724
      8 C         142.3969  141.1076  166.8736 C.ar    1  UNL1       -0.0225
      9 C         140.9276  140.8162  166.9534 C.ar    1  UNL1       -0.0043
     10 C         140.1029  141.4148  168.0541 C.ar    1  UNL1        0.0035
     11 C         140.7476  142.3048  169.0751 C.ar    1  UNL1        0.0714
     12 C         142.2168  142.5962  168.9953 C.ar    1  UNL1        0.0035
     13 C         143.0415  141.9976  167.8946 C.ar    1  UNL1       -0.0043
     14 C         139.9229  142.9034  170.1758 C.3     1  UNL1        0.4186
     15 F         139.0982  143.5020  171.2765 F       1  UNL1       -0.1659
     16 F         139.1426  141.6270  170.2853 F       1  UNL1       -0.1659
     17 F         140.7032  144.1797  170.0663 F       1  UNL1       -0.1659
     18 C         144.1794  143.9229  162.3898 C.3     1  UNL1        0.0730
     19 C         144.0148  145.1135  163.2872 C.3     1  UNL1        0.0294
     20 C         142.6998  145.3675  163.9628 C.3     1  UNL1        0.0666
     21 S         141.4202  145.2130  163.1956 S.3     1  UNL1       -0.0756
     22 C         141.0000  142.5518  161.3540 C.3     1  UNL1        0.1340
     23 N         140.3054  142.8454  162.6507 N.ar    1  UNL1       -0.2872
     24 C         140.4985  144.0686  163.4972 C.ar    1  UNL1        0.1933
     25 N         139.6082  143.9466  164.6982 N.ar    1  UNL1       -0.1221
     26 N         138.8648  142.6480  164.5940 N.ar    1  UNL1       -0.1266
     27 C         139.2956  141.9674  163.3286 C.ar    1  UNL1        0.1862
     28 C         138.8032  140.6416  162.8288 C.ar    1  UNL1        0.1362
     29 C         139.1552  139.3840  163.5669 C.ar    1  UNL1        0.1211
     30 N         138.6628  138.0582  163.0671 N.ar    1  UNL1       -0.2390
     31 C         137.8183  137.9900  161.8292 C.ar    1  UNL1        0.1195
     32 C         137.4662  139.2476  161.0912 C.ar    1  UNL1        0.1196
     33 N         137.9587  140.5733  161.5910 N.ar    1  UNL1       -0.2375
@<TRIPOS>BOND
     1    22    23    1
     2    23    24   ar
     3    24    21    1
     4    21    20    1
     5    20    19    1
     6    19    18    1
     7    18     1    1
     8     1     2    1
     9     2     3    1
    10     4     3    1
    11     4     5    1
    12     5     6    1
    13     6     8    1
    14     8     9   ar
    15     9    10   ar
    16    10    11   ar
    17    11    14    1
    18    14    15    1
    19    14    16    1
    20    14    17    1
    21    11    12   ar
    22    12    13   ar
    23     4     7    1
    24    24    25   ar
    25    25    26   ar
    26    26    27   ar
    27    27    28    1
    28    28    29   ar
    29    29    30   ar
    30    30    31   ar
    31    31    32   ar
    32    32    33   ar
    33    27    23   ar
    34    33    28   ar
    35     7     1    1
    36     6     4    1
    37    13     8   ar
@<TRIPOS>MOLECULE
*****
 33 37 0 0 0
SMALL
GASTEIGER

@<TRIPOS>ATOM
      1 N         138.1341  140.6033  163.3951 N.3     1  UNL1       -0.2726
      2 C         138.0512  139.2584  162.7360 C.3     1  UNL1        0.0721
      3 C         138.9739  138.3273  163.4651 C.3     1  UNL1        0.0190
      4 C         139.6271  139.0967  164.5748 C.3     1  UNL1        0.0201
      5 C         140.4492  137.9549  165.0946 C.3     1  UNL1        0.0061
      6 C         140.5320  139.2997  165.7537 C.3     1  UNL1        0.0237
      7 C         139.1080  140.5034  164.5315 C.3     1  UNL1        0.0724
      8 C         141.1024  140.1934  166.8148 C.ar    1  UNL1       -0.0225
      9 C         140.2834  140.5408  168.0226 C.ar    1  UNL1       -0.0043
     10 C         140.8538  141.4344  169.0838 C.ar    1  UNL1        0.0035
     11 C         142.2430  141.9807  168.9371 C.ar    1  UNL1        0.0714
     12 C         143.0620  141.6334  167.7294 C.ar    1  UNL1        0.0035
     13 C         142.4916  140.7397  166.6682 C.ar    1  UNL1       -0.0043
     14 C         142.8133  142.8744  169.9983 C.3     1  UNL1        0.4186
     15 F         143.3837  143.7681  171.0595 F       1  UNL1       -0.1659
     16 F         141.4965  143.5842  170.1083 F       1  UNL1       -0.1659
     17 F         144.1302  142.1646  169.8883 F       1  UNL1       -0.1659
     18 C         137.3761  141.8324  162.9891 C.3     1  UNL1        0.0730
     19 C         137.5707  143.1160  163.7404 C.3     1  UNL1        0.0294
     20 C         137.7263  144.4068  162.9923 C.3     1  UNL1        0.0666
     21 S         139.0949  144.9079  162.6377 S.3     1  UNL1       -0.0756
     22 C         141.1035  143.4321  164.7443 C.3     1  UNL1        0.1340
     23 N         141.1049  143.2573  163.2545 N.ar    1  UNL1       -0.2872
     24 C         140.1817  143.9356  162.2862 C.ar    1  UNL1        0.1933
     25 N         140.5361  143.4710  160.9047 N.ar    1  UNL1       -0.1221
     26 N         141.6783  142.5055  161.0192 N.ar    1  UNL1       -0.1266
     27 C         142.0299  142.3734  162.4714 C.ar    1  UNL1        0.1862
     28 C         143.1158  141.5091  163.0406 C.ar    1  UNL1        0.1362
     29 C         144.3969  142.1291  163.5144 C.ar    1  UNL1        0.1211
     30 N         145.4828  141.2648  164.0836 N.ar    1  UNL1       -0.2390
     31 C         145.2875  139.7806  164.1789 C.ar    1  UNL1        0.1195
     32 C         144.0064  139.1607  163.7052 C.ar    1  UNL1        0.1196
     33 N         142.9205  140.0250  163.1360 N.ar    1  UNL1       -0.2375
@<TRIPOS>BOND
     1    22    23    1
     2    23    24   ar
     3    24    21    1
     4    21    20    1
     5    20    19    1
     6    19    18    1
     7    18     1    1
     8     1     2    1
     9     2     3    1
    10     4     3    1
    11     4     5    1
    12     5     6    1
    13     6     8    1
    14     8     9   ar
    15     9    10   ar
    16    10    11   ar
    17    11    14    1
    18    14    15    1
    19    14    16    1
    20    14    17    1
    21    11    12   ar
    22    12    13   ar
    23     4     7    1
    24    24    25   ar
    25    25    26   ar
    26    26    27   ar
    27    27    28    1
    28    28    29   ar
    29    29    30   ar
    30    30    31   ar
    31    31    32   ar
    32    32    33   ar
    33    27    23   ar
    34    33    28   ar
    35     7     1    1
    36     6     4    1
    37    13     8   ar
@<TRIPOS>MOLECULE
*****
 33 37 0 0 0
SMALL
GASTEIGER

@<TRIPOS>ATOM
      1 N         143.8442  143.5267  164.4315 N.3     1  UNL1       -0.2726
      2 C         143.6748  144.9207  163.9041 C.3     1  UNL1        0.0721
      3 C         142.2057  145.2164  163.8393 C.3     1  UNL1        0.0190
      4 C         141.4671  144.0052  164.3266 C.3     1  UNL1        0.0201
      5 C         140.0923  144.5792  164.1522 C.3     1  UNL1        0.0061
      6 C         140.2617  143.1852  164.6796 C.3     1  UNL1        0.0237
      7 C         142.4798  142.9609  164.6926 C.3     1  UNL1        0.0724
      8 C         139.6635  141.9070  165.1879 C.ar    1  UNL1       -0.0225
      9 C         140.0201  141.4037  166.5552 C.ar    1  UNL1       -0.0043
     10 C         139.4220  140.1255  167.0635 C.ar    1  UNL1        0.0035
     11 C         138.4672  139.3506  166.2044 C.ar    1  UNL1        0.0714
     12 C         138.1106  139.8539  164.8371 C.ar    1  UNL1        0.0035
     13 C         138.7088  141.1321  164.3288 C.ar    1  UNL1       -0.0043
     14 C         137.8691  138.0724  166.7127 C.3     1  UNL1        0.4186
     15 F         137.2709  136.7941  167.2210 F       1  UNL1       -0.1659
     16 F         137.3675  138.7911  167.9300 F       1  UNL1       -0.1659
     17 F         138.3707  137.3536  165.4954 F       1  UNL1       -0.1659
     18 C         145.1489  142.8222  164.6580 C.3     1  UNL1        0.0730
     19 C         145.6309  141.8005  163.6712 C.3     1  UNL1        0.0294
     20 C         145.0287  140.4267  163.6593 C.3     1  UNL1        0.0666
     21 S         144.3104  139.9332  162.4385 S.3     1  UNL1       -0.0756
     22 C         144.3177  142.4675  160.3825 C.3     1  UNL1        0.1340
     23 N         143.1041  141.8276  160.9889 N.ar    1  UNL1       -0.2872
     24 C         143.1007  140.6627  161.9339 C.ar    1  UNL1        0.1933
     25 N         141.6754  140.3553  162.2858 N.ar    1  UNL1       -0.1221
     26 N         140.7978  141.3303  161.5582 N.ar    1  UNL1       -0.1266
     27 C         141.6807  142.2402  160.7567 C.ar    1  UNL1        0.1862
     28 C         141.2211  143.3652  159.8774 C.ar    1  UNL1        0.1362
     29 C         141.2265  143.2020  158.3863 C.ar    1  UNL1        0.1211
     30 N         140.7668  144.3270  157.5070 N.ar    1  UNL1       -0.2390
     31 C         140.3018  145.6152  158.1190 C.ar    1  UNL1        0.1195
     32 C         140.2963  145.7784  159.6100 C.ar    1  UNL1        0.1196
     33 N         140.7560  144.6533  160.4893 N.ar    1  UNL1       -0.2375
@<TRIPOS>BOND
     1    22    23    1
     2    23    24   ar
     3    24    21    1
     4    21    20    1
     5    20    19    1
     6    19    18    1
     7    18     1    1
     8     1     2    1
     9     2     3    1
    10     4     3    1
    11     4     5    1
    12     5     6    1
    13     6     8    1
    14     8     9   ar
    15     9    10   ar
    16    10    11   ar
    17    11    14    1
    18    14    15    1
    19    14    16    1
    20    14    17    1
    21    11    12   ar
    22    12    13   ar
    23     4     7    1
    24    24    25   ar
    25    25    26   ar
    26    26    27   ar
    27    27    28    1
    28    28    29   ar
    29    29    30   ar
    30    30    31   ar
    31    31    32   ar
    32    32    33   ar
    33    27    23   ar
    34    33    28   ar
    35     7     1    1
    36     6     4    1
    37    13     8   ar
@<TRIPOS>MOLECULE
*****
 33 37 0 0 0
SMALL
GASTEIGER

@<TRIPOS>ATOM
      1 N         142.0115  138.2235  163.2993 N.3     1  UNL1       -0.2726
      2 C         143.2677  138.2570  162.4802 C.3     1  UNL1        0.0721
      3 C         144.1710  139.3049  163.0598 C.3     1  UNL1        0.0190
      4 C         143.4732  139.9190  164.2370 C.3     1  UNL1        0.0201
      5 C         144.5703  140.8806  164.5857 C.3     1  UNL1        0.0061
      6 C         143.3142  140.8470  165.4047 C.3     1  UNL1        0.0237
      7 C         142.1385  139.2506  164.3851 C.3     1  UNL1        0.0724
      8 C         142.4971  141.3634  166.5518 C.ar    1  UNL1       -0.0225
      9 C         142.8017  140.9163  167.9508 C.ar    1  UNL1       -0.0043
     10 C         141.9847  141.4326  169.0979 C.ar    1  UNL1        0.0035
     11 C         140.8630  142.3962  168.8459 C.ar    1  UNL1        0.0714
     12 C         140.5584  142.8433  167.4469 C.ar    1  UNL1        0.0035
     13 C         141.3755  142.3269  166.2998 C.ar    1  UNL1       -0.0043
     14 C         140.0460  142.9126  169.9929 C.3     1  UNL1        0.4186
     15 F         139.2289  143.4290  171.1401 F       1  UNL1       -0.1659
     16 F         139.2535  141.6390  170.0018 F       1  UNL1       -0.1659
     17 F         140.8385  144.1861  169.9841 F       1  UNL1       -0.1659
     18 C         140.8349  137.3211  163.0725 C.3     1  UNL1        0.0730
     19 C         139.5224  137.6195  163.7345 C.3     1  UNL1        0.0294
     20 C         138.6186  138.6737  163.1671 C.3     1  UNL1        0.0666
     21 S         138.6159  140.0542  163.7536 S.3     1  UNL1       -0.0756
     22 C         140.8815  141.0765  161.6389 C.3     1  UNL1        0.1340
     23 N         139.5490  141.7204  161.8832 N.ar    1  UNL1       -0.2872
     24 C         138.5076  141.2505  162.8551 C.ar    1  UNL1        0.1933
     25 N         137.3388  142.1869  162.7710 N.ar    1  UNL1       -0.1221
     26 N         137.6578  143.2356  161.7470 N.ar    1  UNL1       -0.1266
     27 C         139.0238  142.9473  161.1982 C.ar    1  UNL1        0.1862
     28 C         139.7390  143.7456  160.1489 C.ar    1  UNL1        0.1362
     29 C         140.8880  144.6302  160.5328 C.ar    1  UNL1        0.1211
     30 N         141.6032  145.4285  159.4834 N.ar    1  UNL1       -0.2390
     31 C         141.1693  145.3422  158.0501 C.ar    1  UNL1        0.1195
     32 C         140.0203  144.4577  157.6662 C.ar    1  UNL1        0.1196
     33 N         139.3052  143.6594  158.7156 N.ar    1  UNL1       -0.2375
@<TRIPOS>BOND
     1    22    23    1
     2    23    24   ar
     3    24    21    1
     4    21    20    1
     5    20    19    1
     6    19    18    1
     7    18     1    1
     8     1     2    1
     9     2     3    1
    10     4     3    1
    11     4     5    1
    12     5     6    1
    13     6     8    1
    14     8     9   ar
    15     9    10   ar
    16    10    11   ar
    17    11    14    1
    18    14    15    1
    19    14    16    1
    20    14    17    1
    21    11    12   ar
    22    12    13   ar
    23     4     7    1
    24    24    25   ar
    25    25    26   ar
    26    26    27   ar
    27    27    28    1
    28    28    29   ar
    29    29    30   ar
    30    30    31   ar
    31    31    32   ar
    32    32    33   ar
    33    27    23   ar
    34    33    28   ar
    35     7     1    1
    36     6     4    1
    37    13     8   ar
@<TRIPOS>MOLECULE
*****
 33 37 0 0 0
SMALL
GASTEIGER

@<TRIPOS>ATOM
      1 N         141.3860  138.1436  163.3473 N.3     1  UNL1       -0.2726
      2 C         140.0880  137.5282  162.9155 C.3     1  UNL1        0.0721
      3 C         139.0372  137.9145  163.9138 C.3     1  UNL1        0.0190
      4 C         139.6858  138.7686  164.9625 C.3     1  UNL1        0.0201
      5 C         138.4451  138.9858  165.7771 C.3     1  UNL1        0.0061
      6 C         139.7431  139.6012  166.2089 C.3     1  UNL1        0.0237
      7 C         141.1374  138.9102  164.6124 C.3     1  UNL1        0.0724
      8 C         140.5257  140.4372  167.1778 C.ar    1  UNL1       -0.0225
      9 C         140.2149  141.8967  167.3306 C.ar    1  UNL1       -0.0043
     10 C         140.9975  142.7327  168.2994 C.ar    1  UNL1        0.0035
     11 C         142.0907  142.1092  169.1155 C.ar    1  UNL1        0.0714
     12 C         142.4015  140.6497  168.9627 C.ar    1  UNL1        0.0035
     13 C         141.6189  139.8137  167.9939 C.ar    1  UNL1       -0.0043
     14 C         142.8733  142.9452  170.0844 C.3     1  UNL1        0.4186
     15 F         143.6558  143.7812  171.0533 F       1  UNL1       -0.1659
     16 F         144.0269  141.9928  169.9744 F       1  UNL1       -0.1659
     17 F         141.7196  143.8975  170.1944 F       1  UNL1       -0.1659
     18 C         142.7017  138.0150  162.6384 C.3     1  UNL1        0.0730
     19 C         142.7668  138.1567  161.1465 C.3     1  UNL1        0.0294
     20 C         143.8349  139.0028  160.5193 C.3     1  UNL1        0.0666
     21 S         143.6827  140.4944  160.4786 S.3     1  UNL1       -0.0756
     22 C         140.5820  141.4388  160.8576 C.3     1  UNL1        0.1340
     23 N         141.6964  141.6576  161.8375 N.ar    1  UNL1       -0.2872
     24 C         143.1216  141.2236  161.6634 C.ar    1  UNL1        0.1933
     25 N         143.8873  141.6467  162.8819 N.ar    1  UNL1       -0.1221
     26 N         142.9353  142.3422  163.8092 N.ar    1  UNL1       -0.1266
     27 C         141.5812  142.3490  163.1638 C.ar    1  UNL1        0.1862
     28 C         140.3314  142.9429  163.7429 C.ar    1  UNL1        0.1362
     29 C         140.3527  144.3330  164.3060 C.ar    1  UNL1        0.1211
     30 N         139.1030  144.9269  164.8851 N.ar    1  UNL1       -0.2390
     31 C         137.8319  144.1305  164.9011 C.ar    1  UNL1        0.1195
     32 C         137.8105  142.7404  164.3381 C.ar    1  UNL1        0.1196
     33 N         139.0604  142.1466  163.7589 N.ar    1  UNL1       -0.2375
@<TRIPOS>BOND
     1    22    23    1
     2    23    24   ar
     3    24    21    1
     4    21    20    1
     5    20    19    1
     6    19    18    1
     7    18     1    1
     8     1     2    1
     9     2     3    1
    10     4     3    1
    11     4     5    1
    12     5     6    1
    13     6     8    1
    14     8     9   ar
    15     9    10   ar
    16    10    11   ar
    17    11    14    1
    18    14    15    1
    19    14    16    1
    20    14    17    1
    21    11    12   ar
    22    12    13   ar
    23     4     7    1
    24    24    25   ar
    25    25    26   ar
    26    26    27   ar
    27    27    28    1
    28    28    29   ar
    29    29    30   ar
    30    30    31   ar
    31    31    32   ar
    32    32    33   ar
    33    27    23   ar
    34    33    28   ar
    35     7     1    1
    36     6     4    1
    37    13     8   ar
@<TRIPOS>MOLECULE
*****
 33 37 0 0 0
SMALL
GASTEIGER

@<TRIPOS>ATOM
      1 N         137.9752  141.6949  162.7776 N.3     1  UNL1       -0.2726
      2 C         137.6072  140.6918  161.7248 C.3     1  UNL1        0.0721
      3 C         138.0371  139.3373  162.2049 C.3     1  UNL1        0.0190
      4 C         138.6706  139.5032  163.5544 C.3     1  UNL1        0.0201
      5 C         138.9816  138.0505  163.7613 C.3     1  UNL1        0.0061
      6 C         139.3495  139.0536  164.8141 C.3     1  UNL1        0.0237
      7 C         138.6324  140.9604  163.9083 C.3     1  UNL1        0.0724
      8 C         139.9539  139.3732  166.1493 C.ar    1  UNL1       -0.0225
      9 C         141.4448  139.3870  166.3137 C.ar    1  UNL1       -0.0043
     10 C         142.0491  139.7065  167.6489 C.ar    1  UNL1        0.0035
     11 C         141.1625  140.0124  168.8195 C.ar    1  UNL1        0.0714
     12 C         139.6716  139.9986  168.6551 C.ar    1  UNL1        0.0035
     13 C         139.0673  139.6790  167.3199 C.ar    1  UNL1       -0.0043
     14 C         141.7669  140.3320  170.1547 C.3     1  UNL1        0.4186
     15 F         142.3713  140.6516  171.4899 F       1  UNL1       -0.1659
     16 F         140.4976  139.9063  170.8311 F       1  UNL1       -0.1659
     17 F         143.0362  140.7577  169.4782 F       1  UNL1       -0.1659
     18 C         137.7291  143.1731  162.7114 C.3     1  UNL1        0.0730
     19 C         138.6131  144.1155  163.4731 C.3     1  UNL1        0.0294
     20 C         139.2764  145.2595  162.7651 C.3     1  UNL1        0.0666
     21 S         140.7655  145.2681  162.5850 S.3     1  UNL1       -0.0756
     22 C         140.9337  142.6238  160.6799 C.3     1  UNL1        0.1340
     23 N         141.6393  142.8129  161.9900 N.ar    1  UNL1       -0.2872
     24 C         141.5620  144.0283  162.8657 C.ar    1  UNL1        0.1933
     25 N         142.4209  143.7864  164.0714 N.ar    1  UNL1       -0.1221
     26 N         143.0291  142.4215  163.9409 N.ar    1  UNL1       -0.1266
     27 C         142.5461  141.8198  162.6545 C.ar    1  UNL1        0.1862
     28 C         142.9065  140.4632  162.1256 C.ar    1  UNL1        0.1362
     29 C         143.9297  140.3303  161.0368 C.ar    1  UNL1        0.1211
     30 N         144.2901  138.9737  160.5079 N.ar    1  UNL1       -0.2390
     31 C         143.6273  137.7500  161.0677 C.ar    1  UNL1        0.1195
     32 C         142.6041  137.8830  162.1565 C.ar    1  UNL1        0.1196
     33 N         142.2437  139.2396  162.6854 N.ar    1  UNL1       -0.2375
@<TRIPOS>BOND
     1    22    23    1
     2    23    24   ar
     3    24    21    1
     4    21    20    1
     5    20    19    1
     6    19    18    1
     7    18     1    1
     8     1     2    1
     9     2     3    1
    10     4     3    1
    11     4     5    1
    12     5     6    1
    13     6     8    1
    14     8     9   ar
    15     9    10   ar
    16    10    11   ar
    17    11    14    1
    18    14    15    1
    19    14    16    1
    20    14    17    1
    21    11    12   ar
    22    12    13   ar
    23     4     7    1
    24    24    25   ar
    25    25    26   ar
    26    26    27   ar
    27    27    28    1
    28    28    29   ar
    29    29    30   ar
    30    30    31   ar
    31    31    32   ar
    32    32    33   ar
    33    27    23   ar
    34    33    28   ar
    35     7     1    1
    36     6     4    1
    37    13     8   ar
@<TRIPOS>MOLECULE
*****
 33 37 0 0 0
SMALL
GASTEIGER

@<TRIPOS>ATOM
      1 N         141.8673  138.2605  163.1404 N.3     1  UNL1       -0.2726
      2 C         140.6506  137.4917  162.7179 C.3     1  UNL1        0.0721
      3 C         139.5939  137.6844  163.7650 C.3     1  UNL1        0.0190
      4 C         140.1577  138.5723  164.8346 C.3     1  UNL1        0.0201
      5 C         138.9295  138.5797  165.6957 C.3     1  UNL1        0.0061
      6 C         140.1463  139.3485  166.1181 C.3     1  UNL1        0.0237
      7 C         141.5627  138.9284  164.4485 C.3     1  UNL1        0.0724
      8 C         140.8422  140.2404  167.1030 C.ar    1  UNL1       -0.0225
      9 C         140.4111  141.6690  167.2561 C.ar    1  UNL1       -0.0043
     10 C         141.1070  142.5610  168.2410 C.ar    1  UNL1        0.0035
     11 C         142.2340  142.0244  169.0728 C.ar    1  UNL1        0.0714
     12 C         142.6651  140.5958  168.9197 C.ar    1  UNL1        0.0035
     13 C         141.9692  139.7038  167.9348 C.ar    1  UNL1       -0.0043
     14 C         142.9300  142.9163  170.0577 C.3     1  UNL1        0.4186
     15 F         143.6259  143.8084  171.0427 F       1  UNL1       -0.1659
     16 F         144.1676  142.0766  169.9438 F       1  UNL1       -0.1659
     17 F         141.6923  143.7561  170.1717 F       1  UNL1       -0.1659
     18 C         143.1615  138.3465  162.3869 C.3     1  UNL1        0.0730
     19 C         143.2581  137.7921  160.9965 C.3     1  UNL1        0.0294
     20 C         143.3331  138.7220  159.8218 C.3     1  UNL1        0.0666
     21 S         142.0943  139.0438  159.0396 S.3     1  UNL1       -0.0756
     22 C         141.8575  141.6141  161.0364 C.3     1  UNL1        0.1340
     23 N         140.7451  140.6770  160.6697 N.ar    1  UNL1       -0.2872
     24 C         140.8540  139.4956  159.7519 C.ar    1  UNL1        0.1933
     25 N         139.5047  138.8452  159.6714 N.ar    1  UNL1       -0.1221
     26 N         138.5619  139.6247  160.5394 N.ar    1  UNL1       -0.1266
     27 C         139.3284  140.7568  161.1565 C.ar    1  UNL1        0.1862
     28 C         138.7755  141.7878  162.0953 C.ar    1  UNL1        0.1362
     29 C         138.4773  143.1714  161.5987 C.ar    1  UNL1        0.1211
     30 N         137.9243  144.2023  162.5376 N.ar    1  UNL1       -0.2390
     31 C         137.6697  143.8495  163.9732 C.ar    1  UNL1        0.1195
     32 C         137.9679  142.4659  164.4698 C.ar    1  UNL1        0.1196
     33 N         138.5208  141.4350  163.5308 N.ar    1  UNL1       -0.2375
@<TRIPOS>BOND
     1    22    23    1
     2    23    24   ar
     3    24    21    1
     4    21    20    1
     5    20    19    1
     6    19    18    1
     7    18     1    1
     8     1     2    1
     9     2     3    1
    10     4     3    1
    11     4     5    1
    12     5     6    1
    13     6     8    1
    14     8     9   ar
    15     9    10   ar
    16    10    11   ar
    17    11    14    1
    18    14    15    1
    19    14    16    1
    20    14    17    1
    21    11    12   ar
    22    12    13   ar
    23     4     7    1
    24    24    25   ar
    25    25    26   ar
    26    26    27   ar
    27    27    28    1
    28    28    29   ar
    29    29    30   ar
    30    30    31   ar
    31    31    32   ar
    32    32    33   ar
    33    27    23   ar
    34    33    28   ar
    35     7     1    1
    36     6     4    1
    37    13     8   ar
