@<TRIPOS>MOLECULE
*****
 33 35 0 0 0
SMALL
GASTEIGER

@<TRIPOS>ATOM
      1 C         140.5153  142.1262  166.1507 C.2     1  UNL1       -0.0040
      2 C         139.8726  140.7918  165.9137 C.2     1  UNL1       -0.0221
      3 C         141.1327  142.4354  167.4823 C.ar    1  UNL1       -0.0001
      4 C         142.5597  142.0606  167.7525 C.ar    1  UNL1        0.0031
      5 C         143.1771  142.3699  169.0842 C.ar    1  UNL1        0.0366
      6 C         142.3674  143.0538  170.1456 C.ar    1  UNL1        0.1337
      7 O         142.9848  143.3630  171.4773 O.3     1  UNL1       -0.5055
      8 C         140.9404  143.4286  169.8753 C.ar    1  UNL1        0.0366
      9 C         140.3230  143.1194  168.5437 C.ar    1  UNL1        0.0031
     10 H         143.8762  143.1289  171.6461 H       1  UNL1        0.2922
     11 C         140.5913  145.2020  162.8667 C.ar    1  UNL1        0.1386
     12 C         139.4383  145.1564  163.8251 C.ar    1  UNL1        0.0369
     13 C         139.4130  144.1312  164.9198 C.ar    1  UNL1        0.0031
     14 C         140.5406  143.1515  165.0560 C.ar    1  UNL1       -0.0001
     15 C         141.6936  143.1971  164.0977 C.ar    1  UNL1        0.0031
     16 C         141.7190  144.2223  163.0030 C.ar    1  UNL1        0.0369
     17 O         140.6167  146.2272  161.7721 O.3     1  UNL1       -0.4740
     18 C         139.9725  145.9295  160.4506 C.3     1  UNL1        0.2226
     19 C         140.6472  145.0081  159.4780 C.3     1  UNL1        0.1201
     20 C         139.2253  142.9011  160.0156 C.3     1  UNL1        0.0898
     21 N         140.5425  143.5223  159.6562 N.3     1  UNL1       -0.2672
     22 C         141.7549  142.6580  159.4751 C.3     1  UNL1        0.0898
     23 C         139.2552  140.4826  164.5821 C.ar    1  UNL1       -0.0040
     24 C         137.9355  141.0897  164.2081 C.ar    1  UNL1       -0.0003
     25 C         137.3181  140.7805  162.8766 C.ar    1  UNL1       -0.0000
     26 C         138.0203  139.8641  161.9188 C.ar    1  UNL1       -0.0000
     27 C         139.3400  139.2570  162.2928 C.ar    1  UNL1       -0.0000
     28 C         139.9574  139.5663  163.6244 C.ar    1  UNL1       -0.0003
     29 C         139.8473  139.7666  167.0084 C.3     1  UNL1        0.0289
     30 C         138.5374  139.3178  167.5854 C.3     1  UNL1        0.0364
     31 C         137.7199  138.2813  166.8731 C.3     1  UNL1        0.1375
     32 O         136.6658  137.5161  167.6169 O.3     1  UNL1       -0.3820
     33 H         137.0859  136.9574  168.2895 H       1  UNL1        0.2104
@<TRIPOS>BOND
     1    20    21    1
     2    21    22    1
     3    21    19    1
     4    19    18    1
     5    18    17    1
     6    17    11    1
     7    11    12   ar
     8    12    13   ar
     9    13    14   ar
    10    14     1    1
    11     1     2    2
    12     2    29    1
    13    29    30    1
    14    30    31    1
    15    31    32    1
    16     2    23    1
    17    23    24   ar
    18    24    25   ar
    19    25    26   ar
    20    26    27   ar
    21    27    28   ar
    22     1     3    1
    23     3     4   ar
    24     4     5   ar
    25     5     6   ar
    26     6     7    1
    27     6     8   ar
    28     8     9   ar
    29    14    15   ar
    30    15    16   ar
    31    16    11   ar
    32    28    23   ar
    33     9     3   ar
    34    32    33    1
    35     7    10    1
@<TRIPOS>MOLECULE
*****
 33 35 0 0 0
SMALL
GASTEIGER

@<TRIPOS>ATOM
      1 C         140.5126  142.1248  166.1133 C.2     1  UNL1       -0.0040
      2 C         139.8899  140.7837  165.8614 C.2     1  UNL1       -0.0221
      3 C         141.1169  142.4317  167.4514 C.ar    1  UNL1       -0.0001
      4 C         142.5422  142.0592  167.7338 C.ar    1  UNL1        0.0031
      5 C         143.1465  142.3661  169.0720 C.ar    1  UNL1        0.0366
      6 C         142.3256  143.0455  170.1277 C.ar    1  UNL1        0.1337
      7 O         142.9299  143.3524  171.4659 O.3     1  UNL1       -0.5055
      8 C         140.9003  143.4180  169.8452 C.ar    1  UNL1        0.0366
      9 C         140.2959  143.1111  168.5071 C.ar    1  UNL1        0.0031
     10 H         143.8202  143.1197  171.6423 H       1  UNL1        0.2922
     11 C         140.5677  145.2277  162.8546 C.ar    1  UNL1        0.1386
     12 C         141.7401  144.3099  163.0361 C.ar    1  UNL1        0.0369
     13 C         141.7217  143.2756  164.1223 C.ar    1  UNL1        0.0031
     14 C         140.5310  143.1591  165.0270 C.ar    1  UNL1       -0.0001
     15 C         139.3586  144.0770  164.8455 C.ar    1  UNL1        0.0031
     16 C         139.3770  145.1113  163.7593 C.ar    1  UNL1        0.0369
     17 O         140.5861  146.2620  161.7683 O.3     1  UNL1       -0.4740
     18 C         139.9115  145.9851  160.4576 C.3     1  UNL1        0.2226
     19 C         140.2552  144.7469  159.6840 C.3     1  UNL1        0.1201
     20 C         142.5554  143.5782  159.3783 C.3     1  UNL1        0.0898
     21 N         141.5769  144.6437  158.9820 N.3     1  UNL1       -0.2672
     22 C         141.9199  145.6062  157.8839 C.3     1  UNL1        0.0898
     23 C         139.2855  140.4768  164.5232 C.ar    1  UNL1       -0.0040
     24 C         140.0473  139.6533  163.5274 C.ar    1  UNL1       -0.0003
     25 C         139.4430  139.3464  162.1892 C.ar    1  UNL1       -0.0000
     26 C         138.0769  139.8629  161.8469 C.ar    1  UNL1       -0.0000
     27 C         137.3152  140.6863  162.8428 C.ar    1  UNL1       -0.0000
     28 C         137.9195  140.9932  164.1810 C.ar    1  UNL1       -0.0003
     29 C         139.8715  139.7494  166.9476 C.3     1  UNL1        0.0289
     30 C         138.5685  139.3270  167.5590 C.3     1  UNL1        0.0364
     31 C         137.7078  138.3135  166.8646 C.3     1  UNL1        0.1375
     32 O         136.6820  137.5425  167.6412 O.3     1  UNL1       -0.3820
     33 H         137.1273  136.9658  168.2815 H       1  UNL1        0.2104
@<TRIPOS>BOND
     1    20    21    1
     2    21    22    1
     3    21    19    1
     4    19    18    1
     5    18    17    1
     6    17    11    1
     7    11    12   ar
     8    12    13   ar
     9    13    14   ar
    10    14     1    1
    11     1     2    2
    12     2    29    1
    13    29    30    1
    14    30    31    1
    15    31    32    1
    16     2    23    1
    17    23    24   ar
    18    24    25   ar
    19    25    26   ar
    20    26    27   ar
    21    27    28   ar
    22     1     3    1
    23     3     4   ar
    24     4     5   ar
    25     5     6   ar
    26     6     7    1
    27     6     8   ar
    28     8     9   ar
    29    14    15   ar
    30    15    16   ar
    31    16    11   ar
    32    28    23   ar
    33     9     3   ar
    34    32    33    1
    35     7    10    1
@<TRIPOS>MOLECULE
*****
 33 35 0 0 0
SMALL
GASTEIGER

@<TRIPOS>ATOM
      1 C         140.8647  141.0201  166.7160 C.2     1  UNL1       -0.0040
      2 C         142.1248  140.2099  166.6400 C.2     1  UNL1       -0.0221
      3 C         140.4315  141.6120  168.0244 C.ar    1  UNL1       -0.0001
      4 C         140.8649  142.9978  168.4008 C.ar    1  UNL1        0.0031
      5 C         140.4317  143.5897  169.7093 C.ar    1  UNL1        0.0366
      6 C         139.5651  142.7958  170.6413 C.ar    1  UNL1        0.1337
      7 O         139.1318  143.3876  171.9498 O.3     1  UNL1       -0.5055
      8 C         139.1317  141.4099  170.2649 C.ar    1  UNL1        0.0366
      9 C         139.5649  140.8180  168.9565 C.ar    1  UNL1        0.0031
     10 H         139.4026  144.2533  172.1849 H       1  UNL1        0.2922
     11 C         138.3842  141.6749  163.0190 C.ar    1  UNL1        0.1386
     12 C         137.9752  140.6379  164.0226 C.ar    1  UNL1        0.0369
     13 C         138.8021  140.4196  165.2550 C.ar    1  UNL1        0.0031
     14 C         140.0379  141.2383  165.4837 C.ar    1  UNL1       -0.0001
     15 C         140.4469  142.2753  164.4801 C.ar    1  UNL1        0.0031
     16 C         139.6200  142.4936  163.2477 C.ar    1  UNL1        0.0369
     17 O         137.5573  141.8932  161.7866 O.3     1  UNL1       -0.4740
     18 C         137.9906  141.3014  160.4782 C.3     1  UNL1        0.2226
     19 C         137.8428  139.8285  160.2356 C.3     1  UNL1        0.1201
     20 C         140.1906  138.8479  159.7099 C.3     1  UNL1        0.0898
     21 N         138.9671  138.8957  160.5763 N.3     1  UNL1       -0.2672
     22 C         138.8678  138.0108  161.7833 C.3     1  UNL1        0.0898
     23 C         142.5581  139.6179  165.3315 C.ar    1  UNL1       -0.0040
     24 C         143.7327  140.1958  164.5993 C.ar    1  UNL1       -0.0003
     25 C         144.1660  139.6039  163.2909 C.ar    1  UNL1       -0.0000
     26 C         143.4246  138.4341  162.7147 C.ar    1  UNL1       -0.0000
     27 C         142.2499  137.8562  163.4470 C.ar    1  UNL1       -0.0000
     28 C         141.8167  138.4482  164.7554 C.ar    1  UNL1       -0.0003
     29 C         142.9516  139.9916  167.8723 C.3     1  UNL1        0.0289
     30 C         142.5869  138.9024  168.8370 C.3     1  UNL1        0.0364
     31 C         142.4568  139.2085  170.2997 C.3     1  UNL1        0.1375
     32 O         143.6733  139.5615  171.1031 O.3     1  UNL1       -0.3820
     33 H         144.2639  138.7935  171.1499 H       1  UNL1        0.2104
@<TRIPOS>BOND
     1    20    21    1
     2    21    22    1
     3    21    19    1
     4    19    18    1
     5    18    17    1
     6    17    11    1
     7    11    12   ar
     8    12    13   ar
     9    13    14   ar
    10    14     1    1
    11     1     2    2
    12     2    29    1
    13    29    30    1
    14    30    31    1
    15    31    32    1
    16     2    23    1
    17    23    24   ar
    18    24    25   ar
    19    25    26   ar
    20    26    27   ar
    21    27    28   ar
    22     1     3    1
    23     3     4   ar
    24     4     5   ar
    25     5     6   ar
    26     6     7    1
    27     6     8   ar
    28     8     9   ar
    29    14    15   ar
    30    15    16   ar
    31    16    11   ar
    32    28    23   ar
    33     9     3   ar
    34    32    33    1
    35     7    10    1
@<TRIPOS>MOLECULE
*****
 33 35 0 0 0
SMALL
GASTEIGER

@<TRIPOS>ATOM
      1 C         140.7211  141.1806  166.7707 C.2     1  UNL1       -0.0040
      2 C         142.1819  140.8622  166.8920 C.2     1  UNL1       -0.0221
      3 C         139.7451  140.6111  167.7571 C.ar    1  UNL1       -0.0001
      4 C         138.8106  139.5145  167.3398 C.ar    1  UNL1        0.0031
      5 C         137.8345  138.9450  168.3263 C.ar    1  UNL1        0.0366
      6 C         137.7929  139.4723  169.7299 C.ar    1  UNL1        0.1337
      7 O         136.8167  138.9028  170.7164 O.3     1  UNL1       -0.5055
      8 C         138.7273  140.5689  170.1472 C.ar    1  UNL1        0.0366
      9 C         139.7034  141.1384  169.1608 C.ar    1  UNL1        0.0031
     10 H         136.2330  138.2178  170.4557 H       1  UNL1        0.2922
     11 C         139.2671  143.8439  163.4477 C.ar    1  UNL1        0.1386
     12 C         139.4854  144.4083  164.8202 C.ar    1  UNL1        0.0369
     13 C         139.9701  143.5205  165.9279 C.ar    1  UNL1        0.0031
     14 C         140.2364  142.0683  165.6630 C.ar    1  UNL1       -0.0001
     15 C         140.0181  141.5039  164.2906 C.ar    1  UNL1        0.0031
     16 C         139.5334  142.3917  163.1829 C.ar    1  UNL1        0.0369
     17 O         138.7824  144.7317  162.3401 O.3     1  UNL1       -0.4740
     18 C         139.7209  145.7095  161.6974 C.3     1  UNL1        0.2226
     19 C         140.8172  145.2176  160.7995 C.3     1  UNL1        0.1201
     20 C         142.5600  145.0244  162.7167 C.3     1  UNL1        0.0898
     21 N         142.0339  144.5673  161.3884 N.3     1  UNL1       -0.2672
     22 C         142.7246  143.4600  160.6490 C.3     1  UNL1        0.0898
     23 C         143.1581  141.4316  165.9056 C.ar    1  UNL1       -0.0040
     24 C         143.5802  140.6221  164.7155 C.ar    1  UNL1       -0.0003
     25 C         144.5563  141.1914  163.7291 C.ar    1  UNL1       -0.0000
     26 C         145.1104  142.5704  163.9328 C.ar    1  UNL1       -0.0000
     27 C         144.6883  143.3800  165.1230 C.ar    1  UNL1       -0.0000
     28 C         143.7121  142.8106  166.1094 C.ar    1  UNL1       -0.0003
     29 C         142.6666  139.9744  167.9997 C.3     1  UNL1        0.0289
     30 C         143.0797  140.5708  169.3126 C.3     1  UNL1        0.0364
     31 C         142.8536  139.8108  170.5859 C.3     1  UNL1        0.1375
     32 O         144.0158  139.4619  171.4675 O.3     1  UNL1       -0.3820
     33 H         144.5955  138.8361  171.0057 H       1  UNL1        0.2104
@<TRIPOS>BOND
     1    20    21    1
     2    21    22    1
     3    21    19    1
     4    19    18    1
     5    18    17    1
     6    17    11    1
     7    11    12   ar
     8    12    13   ar
     9    13    14   ar
    10    14     1    1
    11     1     2    2
    12     2    29    1
    13    29    30    1
    14    30    31    1
    15    31    32    1
    16     2    23    1
    17    23    24   ar
    18    24    25   ar
    19    25    26   ar
    20    26    27   ar
    21    27    28   ar
    22     1     3    1
    23     3     4   ar
    24     4     5   ar
    25     5     6   ar
    26     6     7    1
    27     6     8   ar
    28     8     9   ar
    29    14    15   ar
    30    15    16   ar
    31    16    11   ar
    32    28    23   ar
    33     9     3   ar
    34    32    33    1
    35     7    10    1
@<TRIPOS>MOLECULE
*****
 33 35 0 0 0
SMALL
GASTEIGER

@<TRIPOS>ATOM
      1 C         141.4333  140.7429  166.3792 C.2     1  UNL1       -0.0040
      2 C         140.2541  139.8864  166.0244 C.2     1  UNL1       -0.0221
      3 C         141.6405  141.1833  167.7980 C.ar    1  UNL1       -0.0001
      4 C         142.4564  140.3409  168.7332 C.ar    1  UNL1        0.0031
      5 C         142.6636  140.7813  170.1521 C.ar    1  UNL1        0.0366
      6 C         142.0549  142.0641  170.6358 C.ar    1  UNL1        0.1337
      7 O         142.2621  142.5045  172.0546 O.3     1  UNL1       -0.5055
      8 C         141.2390  142.9065  169.7006 C.ar    1  UNL1        0.0366
      9 C         141.0318  142.4661  168.2817 C.ar    1  UNL1        0.0031
     10 H         142.7718  141.9783  172.6388 H       1  UNL1        0.2922
     11 C         144.3490  141.9914  163.1871 C.ar    1  UNL1        0.1386
     12 C         144.4552  140.6307  163.8092 C.ar    1  UNL1        0.0369
     13 C         143.4833  140.2145  164.8732 C.ar    1  UNL1        0.0031
     14 C         142.4052  141.1591  165.3152 C.ar    1  UNL1       -0.0001
     15 C         142.2990  142.5199  164.6931 C.ar    1  UNL1        0.0031
     16 C         143.2709  142.9360  163.6291 C.ar    1  UNL1        0.0369
     17 O         145.3209  142.4076  162.1231 O.3     1  UNL1       -0.4740
     18 C         144.8792  142.4826  160.6916 C.3     1  UNL1        0.2226
     19 C         143.7477  141.6238  160.2099 C.3     1  UNL1        0.1201
     20 C         141.3436  141.4161  159.2469 C.3     1  UNL1        0.0898
     21 N         142.4241  142.2453  159.8752 N.3     1  UNL1       -0.2672
     22 C         142.1812  143.6961  160.1687 C.3     1  UNL1        0.0898
     23 C         140.0468  139.4460  164.6056 C.ar    1  UNL1       -0.0040
     24 C         140.4764  138.0747  164.1756 C.ar    1  UNL1       -0.0003
     25 C         140.2692  137.6342  162.7568 C.ar    1  UNL1       -0.0000
     26 C         139.6323  138.5652  161.7679 C.ar    1  UNL1       -0.0000
     27 C         139.2027  139.9365  162.1979 C.ar    1  UNL1       -0.0000
     28 C         139.4100  140.3769  163.6167 C.ar    1  UNL1       -0.0003
     29 C         139.2822  139.4702  167.0885 C.3     1  UNL1        0.0289
     30 C         137.8933  139.0469  166.7116 C.3     1  UNL1        0.0364
     31 C         137.4302  137.6501  167.0022 C.3     1  UNL1        0.1375
     32 O         136.5675  137.3798  168.1991 O.3     1  UNL1       -0.3820
     33 H         137.0731  137.5548  169.0083 H       1  UNL1        0.2104
@<TRIPOS>BOND
     1    20    21    1
     2    21    22    1
     3    21    19    1
     4    19    18    1
     5    18    17    1
     6    17    11    1
     7    11    12   ar
     8    12    13   ar
     9    13    14   ar
    10    14     1    1
    11     1     2    2
    12     2    29    1
    13    29    30    1
    14    30    31    1
    15    31    32    1
    16     2    23    1
    17    23    24   ar
    18    24    25   ar
    19    25    26   ar
    20    26    27   ar
    21    27    28   ar
    22     1     3    1
    23     3     4   ar
    24     4     5   ar
    25     5     6   ar
    26     6     7    1
    27     6     8   ar
    28     8     9   ar
    29    14    15   ar
    30    15    16   ar
    31    16    11   ar
    32    28    23   ar
    33     9     3   ar
    34    32    33    1
    35     7    10    1
@<TRIPOS>MOLECULE
*****
 33 35 0 0 0
SMALL
GASTEIGER

@<TRIPOS>ATOM
      1 C         141.4019  141.3503  166.2746 C.2     1  UNL1       -0.0040
      2 C         142.2506  140.2019  165.8156 C.2     1  UNL1       -0.0221
      3 C         141.1662  141.5701  167.7395 C.ar    1  UNL1       -0.0001
      4 C         142.1053  142.4331  168.5291 C.ar    1  UNL1        0.0031
      5 C         141.8695  142.6529  169.9941 C.ar    1  UNL1        0.0366
      6 C         140.6947  142.0097  170.6695 C.ar    1  UNL1        0.1337
      7 O         140.4590  142.2295  172.1345 O.3     1  UNL1       -0.5055
      8 C         139.7556  141.1467  169.8799 C.ar    1  UNL1        0.0366
      9 C         139.9913  140.9269  168.4150 C.ar    1  UNL1        0.0031
     10 H         141.0456  142.7685  172.6277 H       1  UNL1        0.2922
     11 C         139.5630  144.1363  163.2569 C.ar    1  UNL1        0.1386
     12 C         140.9299  144.4208  163.8049 C.ar    1  UNL1        0.0369
     13 C         141.5429  143.4922  164.8108 C.ar    1  UNL1        0.0031
     14 C         140.7889  142.2790  165.2687 C.ar    1  UNL1       -0.0001
     15 C         139.4219  141.9945  164.7206 C.ar    1  UNL1        0.0031
     16 C         138.8090  142.9231  163.7147 C.ar    1  UNL1        0.0369
     17 O         138.9500  145.0650  162.2509 O.3     1  UNL1       -0.4740
     18 C         139.8174  146.0194  161.4851 C.3     1  UNL1        0.2226
     19 C         140.4120  145.6041  160.1721 C.3     1  UNL1        0.1201
     20 C         139.5456  143.3943  159.1155 C.3     1  UNL1        0.0898
     21 N         140.6048  144.1490  159.8628 N.3     1  UNL1       -0.2672
     22 C         141.8568  143.4486  160.3009 C.3     1  UNL1        0.0898
     23 C         142.4863  139.9820  164.3505 C.ar    1  UNL1       -0.0040
     24 C         141.5509  139.1138  163.5624 C.ar    1  UNL1       -0.0003
     25 C         141.7866  138.8940  162.0975 C.ar    1  UNL1       -0.0000
     26 C         142.9577  139.5423  161.4206 C.ar    1  UNL1       -0.0000
     27 C         143.8932  140.4105  162.2088 C.ar    1  UNL1       -0.0000
     28 C         143.6574  140.6304  163.6738 C.ar    1  UNL1       -0.0003
     29 C         142.8635  139.2732  166.8215 C.3     1  UNL1        0.0289
     30 C         143.8442  138.2285  166.3777 C.3     1  UNL1        0.0364
     31 C         144.3640  137.2220  167.3610 C.3     1  UNL1        0.1375
     32 O         145.7339  136.6376  167.1827 O.3     1  UNL1       -0.3820
     33 H         145.7538  136.1007  166.3751 H       1  UNL1        0.2104
@<TRIPOS>BOND
     1    20    21    1
     2    21    22    1
     3    21    19    1
     4    19    18    1
     5    18    17    1
     6    17    11    1
     7    11    12   ar
     8    12    13   ar
     9    13    14   ar
    10    14     1    1
    11     1     2    2
    12     2    29    1
    13    29    30    1
    14    30    31    1
    15    31    32    1
    16     2    23    1
    17    23    24   ar
    18    24    25   ar
    19    25    26   ar
    20    26    27   ar
    21    27    28   ar
    22     1     3    1
    23     3     4   ar
    24     4     5   ar
    25     5     6   ar
    26     6     7    1
    27     6     8   ar
    28     8     9   ar
    29    14    15   ar
    30    15    16   ar
    31    16    11   ar
    32    28    23   ar
    33     9     3   ar
    34    32    33    1
    35     7    10    1
@<TRIPOS>MOLECULE
*****
 33 35 0 0 0
SMALL
GASTEIGER

@<TRIPOS>ATOM
      1 C         140.7866  140.2847  165.2316 C.2     1  UNL1       -0.0040
      2 C         142.2116  140.0777  165.6517 C.2     1  UNL1       -0.0221
      3 C         139.6845  139.5408  165.9257 C.ar    1  UNL1       -0.0001
      4 C         139.1481  140.0431  167.2334 C.ar    1  UNL1        0.0031
      5 C         138.0459  139.2991  167.9274 C.ar    1  UNL1        0.0366
      6 C         137.4802  138.0528  167.3139 C.ar    1  UNL1        0.1337
      7 O         136.3780  137.3088  168.0079 O.3     1  UNL1       -0.5055
      8 C         138.0165  137.5504  166.0062 C.ar    1  UNL1        0.0366
      9 C         139.1186  138.2944  165.3121 C.ar    1  UNL1        0.0031
     10 H         136.0429  137.6226  168.8248 H       1  UNL1        0.2922
     11 C         139.8181  143.1376  161.8890 C.ar    1  UNL1        0.1386
     12 C         139.7879  143.6115  163.3119 C.ar    1  UNL1        0.0369
     13 C         140.1108  142.6605  164.4261 C.ar    1  UNL1        0.0031
     14 C         140.4638  141.2357  164.1174 C.ar    1  UNL1       -0.0001
     15 C         140.4939  140.7619  162.6946 C.ar    1  UNL1        0.0031
     16 C         140.1711  141.7128  161.5804 C.ar    1  UNL1        0.0369
     17 O         139.4953  144.0886  160.7748 O.3     1  UNL1       -0.4740
     18 C         140.5447  145.0319  160.2661 C.3     1  UNL1        0.2226
     19 C         141.7974  144.4936  159.6408 C.3     1  UNL1        0.1201
     20 C         143.0763  144.3719  161.8991 C.3     1  UNL1        0.0898
     21 N         142.8586  143.8738  160.5010 N.3     1  UNL1       -0.2672
     22 C         143.7020  142.7561  159.9631 C.3     1  UNL1        0.0898
     23 C         143.3138  140.8217  164.9577 C.ar    1  UNL1       -0.0040
     24 C         144.0268  140.1943  163.7966 C.ar    1  UNL1       -0.0003
     25 C         145.1290  140.9382  163.1025 C.ar    1  UNL1       -0.0000
     26 C         145.5182  142.3095  163.5695 C.ar    1  UNL1       -0.0000
     27 C         144.8052  142.9369  164.7305 C.ar    1  UNL1       -0.0000
     28 C         143.7030  142.1929  165.4246 C.ar    1  UNL1       -0.0003
     29 C         142.5344  139.1267  166.7659 C.3     1  UNL1        0.0289
     30 C         142.8920  139.6556  168.1234 C.3     1  UNL1        0.0364
     31 C         142.1557  139.1683  169.3360 C.3     1  UNL1        0.1375
     32 O         142.8842  138.3969  170.3962 O.3     1  UNL1       -0.3820
     33 H         143.1789  137.5472  170.0329 H       1  UNL1        0.2104
@<TRIPOS>BOND
     1    20    21    1
     2    21    22    1
     3    21    19    1
     4    19    18    1
     5    18    17    1
     6    17    11    1
     7    11    12   ar
     8    12    13   ar
     9    13    14   ar
    10    14     1    1
    11     1     2    2
    12     2    29    1
    13    29    30    1
    14    30    31    1
    15    31    32    1
    16     2    23    1
    17    23    24   ar
    18    24    25   ar
    19    25    26   ar
    20    26    27   ar
    21    27    28   ar
    22     1     3    1
    23     3     4   ar
    24     4     5   ar
    25     5     6   ar
    26     6     7    1
    27     6     8   ar
    28     8     9   ar
    29    14    15   ar
    30    15    16   ar
    31    16    11   ar
    32    28    23   ar
    33     9     3   ar
    34    32    33    1
    35     7    10    1
@<TRIPOS>MOLECULE
*****
 33 35 0 0 0
SMALL
GASTEIGER

@<TRIPOS>ATOM
      1 C         141.1244  139.1973  163.5535 C.2     1  UNL1       -0.0040
      2 C         139.7731  138.5480  163.5064 C.2     1  UNL1       -0.0221
      3 C         141.9289  139.3465  162.2963 C.ar    1  UNL1       -0.0001
      4 C         141.7389  140.5511  161.4229 C.ar    1  UNL1        0.0031
      5 C         142.5435  140.7003  160.1657 C.ar    1  UNL1        0.0366
      6 C         143.5380  139.6450  159.7820 C.ar    1  UNL1        0.1337
      7 O         144.3426  139.7943  158.5248 O.3     1  UNL1       -0.5055
      8 C         143.7280  138.4405  160.6554 C.ar    1  UNL1        0.0366
      9 C         142.9235  138.2912  161.9126 C.ar    1  UNL1        0.0031
     10 H         144.2239  140.5467  157.9792 H       1  UNL1        0.2922
     11 C         142.7650  140.6972  167.4661 C.ar    1  UNL1        0.1386
     12 C         142.7928  139.2303  167.1542 C.ar    1  UNL1        0.0369
     13 C         142.2459  138.7303  165.8500 C.ar    1  UNL1        0.0031
     14 C         141.6713  139.6973  164.8577 C.ar    1  UNL1       -0.0001
     15 C         141.6435  141.1642  165.1696 C.ar    1  UNL1        0.0031
     16 C         142.1903  141.6642  166.4738 C.ar    1  UNL1        0.0369
     17 O         143.3119  141.1972  168.7703 O.3     1  UNL1       -0.4740
     18 C         142.7268  140.7131  170.0638 C.3     1  UNL1        0.2226
     19 C         141.7991  141.5962  170.8445 C.3     1  UNL1        0.1201
     20 C         139.4347  141.1006  169.8886 C.3     1  UNL1        0.0898
     21 N         140.5220  142.0784  170.2226 N.3     1  UNL1       -0.2672
     22 C         140.3324  143.5382  169.9348 C.3     1  UNL1        0.0898
     23 C         138.9685  138.3987  164.7636 C.ar    1  UNL1       -0.0040
     24 C         138.5338  139.6160  165.5248 C.ar    1  UNL1       -0.0003
     25 C         137.7293  139.4667  166.7819 C.ar    1  UNL1       -0.0000
     26 C         137.3594  138.1002  167.2779 C.ar    1  UNL1       -0.0000
     27 C         137.7940  136.8830  166.5167 C.ar    1  UNL1       -0.0000
     28 C         138.5986  137.0323  165.2595 C.ar    1  UNL1       -0.0003
     29 C         139.2262  138.0481  162.2022 C.3     1  UNL1        0.0289
     30 C         137.9674  138.6398  161.6406 C.3     1  UNL1        0.0364
     31 C         137.8089  140.1293  161.5621 C.3     1  UNL1        0.1375
     32 O         136.9311  140.8431  162.5470 O.3     1  UNL1       -0.3820
     33 H         136.0089  140.5744  162.4123 H       1  UNL1        0.2104
@<TRIPOS>BOND
     1    20    21    1
     2    21    22    1
     3    21    19    1
     4    19    18    1
     5    18    17    1
     6    17    11    1
     7    11    12   ar
     8    12    13   ar
     9    13    14   ar
    10    14     1    1
    11     1     2    2
    12     2    29    1
    13    29    30    1
    14    30    31    1
    15    31    32    1
    16     2    23    1
    17    23    24   ar
    18    24    25   ar
    19    25    26   ar
    20    26    27   ar
    21    27    28   ar
    22     1     3    1
    23     3     4   ar
    24     4     5   ar
    25     5     6   ar
    26     6     7    1
    27     6     8   ar
    28     8     9   ar
    29    14    15   ar
    30    15    16   ar
    31    16    11   ar
    32    28    23   ar
    33     9     3   ar
    34    32    33    1
    35     7    10    1
@<TRIPOS>MOLECULE
*****
 33 35 0 0 0
SMALL
GASTEIGER

@<TRIPOS>ATOM
      1 C         140.3866  140.9032  164.3890 C.2     1  UNL1       -0.0040
      2 C         141.6449  141.4346  165.0088 C.2     1  UNL1       -0.0221
      3 C         139.6006  139.8332  165.0871 C.ar    1  UNL1       -0.0001
      4 C         138.7895  140.1709  166.3029 C.ar    1  UNL1        0.0031
      5 C         138.0034  139.1009  167.0010 C.ar    1  UNL1        0.0366
      6 C         138.0285  137.6933  166.4834 C.ar    1  UNL1        0.1337
      7 O         137.2425  136.6233  167.1815 O.3     1  UNL1       -0.5055
      8 C         138.8397  137.3556  165.2676 C.ar    1  UNL1        0.0366
      9 C         139.6257  138.4255  164.5695 C.ar    1  UNL1        0.0031
     10 H         136.7358  136.8342  167.9410 H       1  UNL1        0.2922
     11 C         138.9698  142.5185  160.4351 C.ar    1  UNL1        0.1386
     12 C         140.0556  141.4845  160.4772 C.ar    1  UNL1        0.0369
     13 C         140.5278  140.9461  161.7951 C.ar    1  UNL1        0.0031
     14 C         139.9143  141.4416  163.0710 C.ar    1  UNL1       -0.0001
     15 C         138.8285  142.4756  163.0290 C.ar    1  UNL1        0.0031
     16 C         138.3562  143.0141  161.7110 C.ar    1  UNL1        0.0369
     17 O         138.4975  143.0570  159.1172 O.3     1  UNL1       -0.4740
     18 C         139.4109  143.0356  157.9275 C.3     1  UNL1        0.2226
     19 C         139.3641  144.1512  156.9259 C.3     1  UNL1        0.1201
     20 C         141.0047  145.5368  158.3884 C.3     1  UNL1        0.0898
     21 N         140.1243  145.4192  157.1796 N.3     1  UNL1       -0.2672
     22 C         140.0042  146.5696  156.2246 C.3     1  UNL1        0.0898
     23 C         142.4310  142.5046  164.3107 C.ar    1  UNL1       -0.0040
     24 C         142.0327  143.9434  164.4560 C.ar    1  UNL1       -0.0003
     25 C         142.8187  145.0134  163.7579 C.ar    1  UNL1       -0.0000
     26 C         144.0031  144.6445  162.9145 C.ar    1  UNL1       -0.0000
     27 C         144.4013  143.2057  162.7692 C.ar    1  UNL1       -0.0000
     28 C         143.6152  142.1357  163.4673 C.ar    1  UNL1       -0.0003
     29 C         142.1172  140.8961  166.3268 C.3     1  UNL1        0.0289
     30 C         142.7424  139.5346  166.4000 C.3     1  UNL1        0.0364
     31 C         143.6823  139.0820  165.3222 C.3     1  UNL1        0.1375
     32 O         143.1428  138.4510  164.0729 O.3     1  UNL1       -0.3820
     33 H         142.7272  137.6026  164.2927 H       1  UNL1        0.2104
@<TRIPOS>BOND
     1    20    21    1
     2    21    22    1
     3    21    19    1
     4    19    18    1
     5    18    17    1
     6    17    11    1
     7    11    12   ar
     8    12    13   ar
     9    13    14   ar
    10    14     1    1
    11     1     2    2
    12     2    29    1
    13    29    30    1
    14    30    31    1
    15    31    32    1
    16     2    23    1
    17    23    24   ar
    18    24    25   ar
    19    25    26   ar
    20    26    27   ar
    21    27    28   ar
    22     1     3    1
    23     3     4   ar
    24     4     5   ar
    25     5     6   ar
    26     6     7    1
    27     6     8   ar
    28     8     9   ar
    29    14    15   ar
    30    15    16   ar
    31    16    11   ar
    32    28    23   ar
    33     9     3   ar
    34    32    33    1
    35     7    10    1
