@<TRIPOS>MOLECULE
*****
 36 39 0 0 0
SMALL
GASTEIGER

@<TRIPOS>ATOM
      1 C         145.0807  139.2416  164.3931 C.3     1  UNL1        0.0522
      2 C         143.9041  140.1514  164.5874 C.ar    1  UNL1        0.0637
      3 N         142.9870  139.9521  165.7575 N.ar    1  UNL1       -0.2180
      4 C         141.8104  140.8619  165.9519 C.ar    1  UNL1        0.2198
      5 N         141.5508  141.9711  164.9761 N.ar    1  UNL1       -0.2136
      6 C         142.4679  142.1705  163.8059 C.ar    1  UNL1        0.0854
      7 C         142.2083  143.2797  162.8301 C.ar    1  UNL1        0.0205
      8 C         143.1254  143.4791  161.6599 C.ar    1  UNL1        0.0162
      9 C         144.3020  142.5692  161.4656 C.ar    1  UNL1        0.0507
     10 C         144.5616  141.4600  162.4414 C.ar    1  UNL1        0.0174
     11 C         143.6445  141.2607  163.6115 C.ar    1  UNL1        0.0326
     12 N         140.8933  140.6625  167.1221 N.pl3   1  UNL1       -0.2780
     13 C         139.6645  139.8148  166.9760 C.3     1  UNL1        0.0961
     14 C         138.7475  139.6154  168.1462 C.3     1  UNL1        0.0508
     15 C         139.0594  140.2637  169.4624 C.3     1  UNL1        0.1139
     16 O         138.1423  140.0643  170.6326 O.3     1  UNL1       -0.3843
     17 C         140.2882  141.1114  169.6085 C.3     1  UNL1        0.0508
     18 C         141.2052  141.3107  168.4383 C.3     1  UNL1        0.0961
     19 H         137.4023  139.4947  170.3701 H       1  UNL1        0.2103
     20 N         145.2190  142.7687  160.2954 N.am    1  UNL1       -0.2804
     21 C         144.7924  142.3321  158.9253 C.2     1  UNL1        0.2496
     22 O         143.4487  141.6962  158.7252 O.2     1  UNL1       -0.2698
     23 H         146.1010  143.1861  160.4267 H       1  UNL1        0.1552
     24 C         145.7095  142.5315  157.7550 C.2     1  UNL1        0.0580
     25 C         145.8117  141.4763  156.6939 C.2     1  UNL1        0.0047
     26 C         146.7287  141.6758  155.5238 C.ar    1  UNL1        0.0003
     27 C         146.2143  141.4884  154.1272 C.ar    1  UNL1        0.0031
     28 C         147.1313  141.6878  152.9571 C.ar    1  UNL1        0.0372
     29 C         148.5628  142.0747  153.1835 C.ar    1  UNL1        0.1468
     30 C         149.0772  142.2620  154.5799 C.ar    1  UNL1        0.0372
     31 C         148.1602  142.0626  155.7502 C.ar    1  UNL1        0.0031
     32 O         149.4798  142.2741  152.0134 O.3     1  UNL1       -0.4045
     33 C         150.9629  142.1354  152.1905 C.3     1  UNL1        0.5753
     34 F         152.4459  141.9967  152.3677 F       1  UNL1       -0.1328
     35 F         150.8247  140.6418  152.1783 F       1  UNL1       -0.1328
     36 F         151.1011  143.6289  152.2028 F       1  UNL1       -0.1328
@<TRIPOS>BOND
     1     1     2    1
     2     2     3   ar
     3     3     4   ar
     4     4    12    1
     5    12    13    1
     6    13    14    1
     7    14    15    1
     8    15    16    1
     9    15    17    1
    10    17    18    1
    11     4     5   ar
    12     5     6   ar
    13     6     7   ar
    14     7     8   ar
    15     8     9   ar
    16     9    20    1
    17    20    21   am
    18    21    22    2
    19    21    24    1
    20    24    25    2
    21    25    26    1
    22    26    27   ar
    23    27    28   ar
    24    28    29   ar
    25    29    32    1
    26    32    33    1
    27    33    34    1
    28    33    35    1
    29    33    36    1
    30    29    30   ar
    31    30    31   ar
    32     9    10   ar
    33    10    11   ar
    34    11     2   ar
    35    18    12    1
    36    11     6   ar
    37    31    26   ar
    38    16    19    1
    39    20    23    1
@<TRIPOS>MOLECULE
*****
 36 39 0 0 0
SMALL
GASTEIGER

@<TRIPOS>ATOM
      1 C         137.4275  143.8110  154.1211 C.3     1  UNL1        0.0522
      2 C         138.2359  144.6191  155.0924 C.ar    1  UNL1        0.0637
      3 N         138.2026  146.1175  155.0318 N.ar    1  UNL1       -0.2180
      4 C         139.0111  146.9256  156.0030 C.ar    1  UNL1        0.2198
      5 N         139.8529  146.2353  157.0350 N.ar    1  UNL1       -0.2136
      6 C         139.8862  144.7368  157.0956 C.ar    1  UNL1        0.0854
      7 C         140.7280  144.0466  158.1275 C.ar    1  UNL1        0.0205
      8 C         140.7613  142.5482  158.1882 C.ar    1  UNL1        0.0162
      9 C         139.9528  141.7401  157.2169 C.ar    1  UNL1        0.0507
     10 C         139.1111  142.4304  156.1850 C.ar    1  UNL1        0.0174
     11 C         139.0777  143.9288  156.1244 C.ar    1  UNL1        0.0326
     12 N         138.9777  148.4240  155.9424 N.pl3   1  UNL1       -0.2780
     13 C         139.4642  149.1360  154.7150 C.3     1  UNL1        0.0961
     14 C         139.4309  150.6343  154.6544 C.3     1  UNL1        0.0508
     15 C         138.9110  151.4208  155.8211 C.3     1  UNL1        0.1139
     16 O         138.8776  152.9192  155.7604 O.3     1  UNL1       -0.3843
     17 C         138.4245  150.7089  157.0485 C.3     1  UNL1        0.0508
     18 C         138.4579  149.2105  157.1091 C.3     1  UNL1        0.0961
     19 H         139.2247  153.2160  154.9046 H       1  UNL1        0.2103
     20 N         139.9862  140.2417  157.2776 N.am    1  UNL1       -0.2804
     21 C         141.0907  139.4879  156.5980 C.2     1  UNL1        0.2496
     22 O         142.1619  140.2326  155.8577 O.2     1  UNL1       -0.2698
     23 H         139.2831  139.7529  157.7635 H       1  UNL1        0.1552
     24 C         141.1241  137.9895  156.6587 C.2     1  UNL1        0.0580
     25 C         142.2589  137.2384  156.0279 C.2     1  UNL1        0.0047
     26 C         142.2922  135.7400  156.0886 C.ar    1  UNL1        0.0003
     27 C         143.2402  135.0481  157.0227 C.ar    1  UNL1        0.0031
     28 C         143.2735  133.5497  157.0834 C.ar    1  UNL1        0.0372
     29 C         142.3589  132.7432  156.2100 C.ar    1  UNL1        0.1468
     30 C         141.4109  133.4350  155.2759 C.ar    1  UNL1        0.0372
     31 C         141.3775  134.9335  155.2152 C.ar    1  UNL1        0.0031
     32 O         142.3922  131.2448  156.2707 O.3     1  UNL1       -0.4045
     33 C         143.7005  130.5188  156.1647 C.3     1  UNL1        0.5753
     34 F         145.0088  129.7928  156.0587 F       1  UNL1       -0.1328
     35 F         143.8756  131.0381  154.7685 F       1  UNL1       -0.1328
     36 F         143.5254  129.9994  157.5609 F       1  UNL1       -0.1328
@<TRIPOS>BOND
     1     1     2    1
     2     2     3   ar
     3     3     4   ar
     4     4    12    1
     5    12    13    1
     6    13    14    1
     7    14    15    1
     8    15    16    1
     9    15    17    1
    10    17    18    1
    11     4     5   ar
    12     5     6   ar
    13     6     7   ar
    14     7     8   ar
    15     8     9   ar
    16     9    20    1
    17    20    21   am
    18    21    22    2
    19    21    24    1
    20    24    25    2
    21    25    26    1
    22    26    27   ar
    23    27    28   ar
    24    28    29   ar
    25    29    32    1
    26    32    33    1
    27    33    34    1
    28    33    35    1
    29    33    36    1
    30    29    30   ar
    31    30    31   ar
    32     9    10   ar
    33    10    11   ar
    34    11     2   ar
    35    18    12    1
    36    11     6   ar
    37    31    26   ar
    38    16    19    1
    39    20    23    1
@<TRIPOS>MOLECULE
*****
 36 39 0 0 0
SMALL
GASTEIGER

@<TRIPOS>ATOM
      1 C         141.1266  137.3134  162.9710 C.3     1  UNL1        0.0522
      2 C         141.0271  138.7130  162.4409 C.ar    1  UNL1        0.0637
      3 N         140.4715  139.8051  163.3062 N.ar    1  UNL1       -0.2180
      4 C         140.3719  141.2047  162.7760 C.ar    1  UNL1        0.2198
      5 N         140.8280  141.5123  161.3806 N.ar    1  UNL1       -0.2136
      6 C         141.3836  140.4203  160.5152 C.ar    1  UNL1        0.0854
      7 C         141.8397  140.7279  159.1197 C.ar    1  UNL1        0.0205
      8 C         142.3953  139.6359  158.2545 C.ar    1  UNL1        0.0162
      9 C         142.4949  138.2363  158.7846 C.ar    1  UNL1        0.0507
     10 C         142.0388  137.9286  160.1801 C.ar    1  UNL1        0.0174
     11 C         141.4832  139.0206  161.0454 C.ar    1  UNL1        0.0326
     12 N         139.8163  142.2967  163.6414 N.pl3   1  UNL1       -0.2780
     13 C         138.6608  143.1221  163.1580 C.3     1  UNL1        0.0961
     14 C         138.1052  144.2140  164.0233 C.3     1  UNL1        0.0508
     15 C         138.7051  144.4807  165.3721 C.3     1  UNL1        0.1139
     16 O         138.1495  145.5727  166.2374 O.3     1  UNL1       -0.3843
     17 C         139.8606  143.6554  165.8554 C.3     1  UNL1        0.0508
     18 C         140.4161  142.5634  164.9901 C.3     1  UNL1        0.0961
     19 H         137.4118  146.0048  165.7790 H       1  UNL1        0.2103
     20 N         143.0505  137.1442  157.9193 N.am    1  UNL1       -0.2804
     21 C         142.1802  136.4875  156.8891 C.2     1  UNL1        0.2496
     22 O         140.7543  136.9228  156.7243 O.2     1  UNL1       -0.2698
     23 H         143.9864  136.8585  158.0275 H       1  UNL1        0.1552
     24 C         142.7359  135.3955  156.0238 C.2     1  UNL1        0.0580
     25 C         142.4292  133.9610  156.3370 C.2     1  UNL1        0.0047
     26 C         142.9849  132.8690  155.4717 C.ar    1  UNL1        0.0003
     27 C         144.0420  131.9506  156.0094 C.ar    1  UNL1        0.0031
     28 C         144.5976  130.8586  155.1440 C.ar    1  UNL1        0.0372
     29 C         144.0962  130.6851  153.7410 C.ar    1  UNL1        0.1468
     30 C         143.0392  131.6035  153.2033 C.ar    1  UNL1        0.0372
     31 C         142.4835  132.6955  154.0687 C.ar    1  UNL1        0.0031
     32 O         144.6518  129.5931  152.8757 O.3     1  UNL1       -0.4045
     33 C         144.6428  128.1737  153.3608 C.3     1  UNL1        0.5753
     34 F         144.6337  126.7544  153.8460 F       1  UNL1       -0.1328
     35 F         146.1156  128.0734  153.0949 F       1  UNL1       -0.1328
     36 F         143.1700  128.2741  153.6268 F       1  UNL1       -0.1328
@<TRIPOS>BOND
     1     1     2    1
     2     2     3   ar
     3     3     4   ar
     4     4    12    1
     5    12    13    1
     6    13    14    1
     7    14    15    1
     8    15    16    1
     9    15    17    1
    10    17    18    1
    11     4     5   ar
    12     5     6   ar
    13     6     7   ar
    14     7     8   ar
    15     8     9   ar
    16     9    20    1
    17    20    21   am
    18    21    22    2
    19    21    24    1
    20    24    25    2
    21    25    26    1
    22    26    27   ar
    23    27    28   ar
    24    28    29   ar
    25    29    32    1
    26    32    33    1
    27    33    34    1
    28    33    35    1
    29    33    36    1
    30    29    30   ar
    31    30    31   ar
    32     9    10   ar
    33    10    11   ar
    34    11     2   ar
    35    18    12    1
    36    11     6   ar
    37    31    26   ar
    38    16    19    1
    39    20    23    1
@<TRIPOS>MOLECULE
*****
 36 39 0 0 0
SMALL
GASTEIGER

@<TRIPOS>ATOM
      1 C         140.5023  141.6689  169.5383 C.3     1  UNL1        0.0522
      2 C         139.4641  140.6275  169.2420 C.ar    1  UNL1        0.0637
      3 N         138.6678  140.0230  170.3602 N.ar    1  UNL1       -0.2180
      4 C         137.6297  138.9815  170.0640 C.ar    1  UNL1        0.2198
      5 N         137.3879  138.5446  168.6496 N.ar    1  UNL1       -0.2136
      6 C         138.1843  139.1492  167.5313 C.ar    1  UNL1        0.0854
      7 C         137.9425  138.7123  166.1169 C.ar    1  UNL1        0.0205
      8 C         138.7388  139.3168  164.9987 C.ar    1  UNL1        0.0162
      9 C         139.7769  140.3582  165.2949 C.ar    1  UNL1        0.0507
     10 C         140.0187  140.7951  166.7093 C.ar    1  UNL1        0.0174
     11 C         139.2224  140.1906  167.8275 C.ar    1  UNL1        0.0326
     12 N         136.8334  138.3770  171.1823 N.pl3   1  UNL1       -0.2780
     13 C         135.5260  138.9899  171.5886 C.3     1  UNL1        0.0961
     14 C         134.7298  138.3853  172.7068 C.3     1  UNL1        0.0508
     15 C         135.2409  137.1680  173.4187 C.3     1  UNL1        0.1139
     16 O         134.4445  136.5634  174.5370 O.3     1  UNL1       -0.3843
     17 C         136.5482  136.5551  173.0124 C.3     1  UNL1        0.0508
     18 C         137.3445  137.1596  171.8941 C.3     1  UNL1        0.0961
     19 H         133.6328  137.0774  174.6705 H       1  UNL1        0.2103
     20 N         140.5732  140.9627  164.1767 N.am    1  UNL1       -0.2804
     21 C         141.6876  140.1838  163.5431 C.2     1  UNL1        0.2496
     22 O         142.0057  138.8004  164.0277 O.2     1  UNL1       -0.2698
     23 H         140.3645  141.8707  163.8586 H       1  UNL1        0.1552
     24 C         142.4839  140.7883  162.4248 C.2     1  UNL1        0.0580
     25 C         142.5048  140.1294  161.0775 C.2     1  UNL1        0.0047
     26 C         143.3011  140.7340  159.9593 C.ar    1  UNL1        0.0003
     27 C         143.5627  139.9430  158.7118 C.ar    1  UNL1        0.0031
     28 C         144.3591  140.5476  157.5937 C.ar    1  UNL1        0.0372
     29 C         144.8938  141.9430  157.7228 C.ar    1  UNL1        0.1468
     30 C         144.6322  142.7340  158.9702 C.ar    1  UNL1        0.0372
     31 C         143.8359  142.1295  160.0885 C.ar    1  UNL1        0.0031
     32 O         145.6901  142.5476  156.6046 O.3     1  UNL1       -0.4045
     33 C         147.1659  142.2950  156.5129 C.3     1  UNL1        0.5753
     34 F         148.6416  142.0424  156.4212 F       1  UNL1       -0.1328
     35 F         147.4147  143.3853  157.5126 F       1  UNL1       -0.1328
     36 F         146.9171  141.2047  155.5133 F       1  UNL1       -0.1328
@<TRIPOS>BOND
     1     1     2    1
     2     2     3   ar
     3     3     4   ar
     4     4    12    1
     5    12    13    1
     6    13    14    1
     7    14    15    1
     8    15    16    1
     9    15    17    1
    10    17    18    1
    11     4     5   ar
    12     5     6   ar
    13     6     7   ar
    14     7     8   ar
    15     8     9   ar
    16     9    20    1
    17    20    21   am
    18    21    22    2
    19    21    24    1
    20    24    25    2
    21    25    26    1
    22    26    27   ar
    23    27    28   ar
    24    28    29   ar
    25    29    32    1
    26    32    33    1
    27    33    34    1
    28    33    35    1
    29    33    36    1
    30    29    30   ar
    31    30    31   ar
    32     9    10   ar
    33    10    11   ar
    34    11     2   ar
    35    18    12    1
    36    11     6   ar
    37    31    26   ar
    38    16    19    1
    39    20    23    1
@<TRIPOS>MOLECULE
*****
 36 39 0 0 0
SMALL
GASTEIGER

@<TRIPOS>ATOM
      1 C         140.7977  143.9666  159.0579 C.3     1  UNL1        0.0522
      2 C         140.1833  144.3982  157.7594 C.ar    1  UNL1        0.0637
      3 N         140.0127  145.8578  157.4589 N.ar    1  UNL1       -0.2180
      4 C         139.3984  146.2894  156.1603 C.ar    1  UNL1        0.2198
      5 N         138.9546  145.2614  155.1622 N.ar    1  UNL1       -0.2136
      6 C         139.1252  143.8017  155.4627 C.ar    1  UNL1        0.0854
      7 C         138.6814  142.7737  154.4647 C.ar    1  UNL1        0.0205
      8 C         138.8520  141.3140  154.7652 C.ar    1  UNL1        0.0162
      9 C         139.4664  140.8824  156.0637 C.ar    1  UNL1        0.0507
     10 C         139.9101  141.9105  157.0618 C.ar    1  UNL1        0.0174
     11 C         139.7395  143.3701  156.7613 C.ar    1  UNL1        0.0326
     12 N         139.2278  147.7492  155.8598 N.pl3   1  UNL1       -0.2780
     13 C         139.7562  148.3174  154.5762 C.3     1  UNL1        0.0961
     14 C         139.5856  149.7770  154.2757 C.3     1  UNL1        0.0508
     15 C         138.8866  150.6684  155.2590 C.3     1  UNL1        0.1139
     16 O         138.7160  152.1281  154.9585 O.3     1  UNL1       -0.3843
     17 C         138.3581  150.1002  156.5427 C.3     1  UNL1        0.0508
     18 C         138.5288  148.6406  156.8431 C.3     1  UNL1        0.0961
     19 H         139.1112  152.3290  154.0958 H       1  UNL1        0.2103
     20 N         139.6369  139.4227  156.3642 N.am    1  UNL1       -0.2804
     21 C         140.9146  138.7264  156.0001 C.2     1  UNL1        0.2496
     22 O         142.0217  139.4897  155.3355 O.2     1  UNL1       -0.2698
     23 H         138.9103  138.9217  156.8004 H       1  UNL1        0.1552
     24 C         141.0852  137.2667  156.3005 C.2     1  UNL1        0.0580
     25 C         142.1570  136.4786  155.6077 C.2     1  UNL1        0.0047
     26 C         142.3276  135.0190  155.9082 C.ar    1  UNL1        0.0003
     27 C         143.2364  134.5831  157.0191 C.ar    1  UNL1        0.0031
     28 C         143.4070  133.1235  157.3196 C.ar    1  UNL1        0.0372
     29 C         142.6687  132.0996  156.5092 C.ar    1  UNL1        0.1468
     30 C         141.7599  132.5354  155.3984 C.ar    1  UNL1        0.0372
     31 C         141.5893  133.9951  155.0978 C.ar    1  UNL1        0.0031
     32 O         142.8393  130.6400  156.8097 O.3     1  UNL1       -0.4045
     33 C         144.0563  130.1629  157.5455 C.3     1  UNL1        0.5753
     34 F         145.2732  129.6858  158.2813 F       1  UNL1       -0.1328
     35 F         144.9170  130.5719  156.3872 F       1  UNL1       -0.1328
     36 F         143.1955  129.7539  158.7039 F       1  UNL1       -0.1328
@<TRIPOS>BOND
     1     1     2    1
     2     2     3   ar
     3     3     4   ar
     4     4    12    1
     5    12    13    1
     6    13    14    1
     7    14    15    1
     8    15    16    1
     9    15    17    1
    10    17    18    1
    11     4     5   ar
    12     5     6   ar
    13     6     7   ar
    14     7     8   ar
    15     8     9   ar
    16     9    20    1
    17    20    21   am
    18    21    22    2
    19    21    24    1
    20    24    25    2
    21    25    26    1
    22    26    27   ar
    23    27    28   ar
    24    28    29   ar
    25    29    32    1
    26    32    33    1
    27    33    34    1
    28    33    35    1
    29    33    36    1
    30    29    30   ar
    31    30    31   ar
    32     9    10   ar
    33    10    11   ar
    34    11     2   ar
    35    18    12    1
    36    11     6   ar
    37    31    26   ar
    38    16    19    1
    39    20    23    1
@<TRIPOS>MOLECULE
*****
 36 39 0 0 0
SMALL
GASTEIGER

@<TRIPOS>ATOM
      1 C         143.9802  143.2481  161.0193 C.3     1  UNL1        0.0522
      2 C         144.0081  142.1188  160.0324 C.ar    1  UNL1        0.0637
      3 N         144.7776  142.2600  158.7526 N.ar    1  UNL1       -0.2180
      4 C         144.8055  141.1307  157.7657 C.ar    1  UNL1        0.2198
      5 N         144.0638  139.8603  158.0586 N.ar    1  UNL1       -0.2136
      6 C         143.2943  139.7190  159.3385 C.ar    1  UNL1        0.0854
      7 C         142.5526  138.4486  159.6313 C.ar    1  UNL1        0.0205
      8 C         141.7831  138.3074  160.9111 C.ar    1  UNL1        0.0162
      9 C         141.7552  139.4367  161.8980 C.ar    1  UNL1        0.0507
     10 C         142.4968  140.7071  161.6051 C.ar    1  UNL1        0.0174
     11 C         143.2664  140.8483  160.3253 C.ar    1  UNL1        0.0326
     12 N         145.5751  141.2720  156.4859 N.pl3   1  UNL1       -0.2780
     13 C         145.1836  140.4666  155.2826 C.3     1  UNL1        0.0961
     14 C         145.9532  140.6078  154.0029 C.3     1  UNL1        0.0508
     15 C         147.1142  141.5545  153.9265 C.3     1  UNL1        0.1139
     16 O         147.8838  141.6957  152.6466 O.3     1  UNL1       -0.3843
     17 C         147.5057  142.3599  155.1298 C.3     1  UNL1        0.0508
     18 C         146.7361  142.2186  156.4095 C.3     1  UNL1        0.0961
     19 H         147.5032  141.1094  151.9741 H       1  UNL1        0.2103
     20 N         140.9856  139.2954  163.1778 N.am    1  UNL1       -0.2804
     21 C         141.7100  139.0202  164.4621 C.2     1  UNL1        0.2496
     22 O         143.2040  138.8861  164.4666 O.2     1  UNL1       -0.2698
     23 H         140.0050  139.3834  163.1748 H       1  UNL1        0.1552
     24 C         140.9404  138.8789  165.7419 C.2     1  UNL1        0.0580
     25 C         140.0568  139.9958  166.2128 C.2     1  UNL1        0.0047
     26 C         139.2873  139.8545  167.4926 C.ar    1  UNL1        0.0003
     27 C         138.0668  138.9837  167.5417 C.ar    1  UNL1        0.0031
     28 C         137.2973  138.8424  168.8215 C.ar    1  UNL1        0.0372
     29 C         137.7481  139.5719  170.0522 C.ar    1  UNL1        0.1468
     30 C         138.9685  140.4427  170.0031 C.ar    1  UNL1        0.0372
     31 C         139.7381  140.5840  168.7233 C.ar    1  UNL1        0.0031
     32 O         136.9786  139.4306  171.3319 O.3     1  UNL1       -0.4045
     33 C         136.3942  138.1027  171.7130 C.3     1  UNL1        0.5753
     34 F         135.8098  136.7749  172.0941 F       1  UNL1       -0.1328
     35 F         137.7348  137.6575  172.2175 F       1  UNL1       -0.1328
     36 F         135.0536  138.5480  171.2086 F       1  UNL1       -0.1328
@<TRIPOS>BOND
     1     1     2    1
     2     2     3   ar
     3     3     4   ar
     4     4    12    1
     5    12    13    1
     6    13    14    1
     7    14    15    1
     8    15    16    1
     9    15    17    1
    10    17    18    1
    11     4     5   ar
    12     5     6   ar
    13     6     7   ar
    14     7     8   ar
    15     8     9   ar
    16     9    20    1
    17    20    21   am
    18    21    22    2
    19    21    24    1
    20    24    25    2
    21    25    26    1
    22    26    27   ar
    23    27    28   ar
    24    28    29   ar
    25    29    32    1
    26    32    33    1
    27    33    34    1
    28    33    35    1
    29    33    36    1
    30    29    30   ar
    31    30    31   ar
    32     9    10   ar
    33    10    11   ar
    34    11     2   ar
    35    18    12    1
    36    11     6   ar
    37    31    26   ar
    38    16    19    1
    39    20    23    1
@<TRIPOS>MOLECULE
*****
 36 39 0 0 0
SMALL
GASTEIGER

@<TRIPOS>ATOM
      1 C         143.2043  138.3157  160.0295 C.3     1  UNL1        0.0522
      2 C         143.5813  139.6836  159.5429 C.ar    1  UNL1        0.0637
      3 N         144.4061  139.8364  158.2994 N.ar    1  UNL1       -0.2180
      4 C         144.7831  141.2043  157.8128 C.ar    1  UNL1        0.2198
      5 N         144.3353  142.4194  158.5697 N.ar    1  UNL1       -0.2136
      6 C         143.5104  142.2667  159.8133 C.ar    1  UNL1        0.0854
      7 C         143.0626  143.4818  160.5702 C.ar    1  UNL1        0.0205
      8 C         142.2378  143.3290  161.8136 C.ar    1  UNL1        0.0162
      9 C         141.8608  141.9611  162.3002 C.ar    1  UNL1        0.0507
     10 C         142.3087  140.7460  161.5433 C.ar    1  UNL1        0.0174
     11 C         143.1335  140.8988  160.2998 C.ar    1  UNL1        0.0326
     12 N         145.6080  141.3570  156.5692 N.pl3   1  UNL1       -0.2780
     13 C         146.8419  142.2096  156.5878 C.3     1  UNL1        0.0961
     14 C         147.6667  142.3623  155.3442 C.3     1  UNL1        0.0508
     15 C         147.2575  141.6625  154.0822 C.3     1  UNL1        0.1139
     16 O         148.0824  141.8152  152.8386 O.3     1  UNL1       -0.3843
     17 C         146.0235  140.8099  154.0637 C.3     1  UNL1        0.0508
     18 C         145.1988  140.6572  155.3072 C.3     1  UNL1        0.0961
     19 H         148.8385  142.3946  153.0214 H       1  UNL1        0.2103
     20 N         141.0360  141.8083  163.5438 N.am    1  UNL1       -0.2804
     21 C         141.7003  141.4868  164.8496 C.2     1  UNL1        0.2496
     22 O         143.1895  141.3179  164.9120 O.2     1  UNL1       -0.2698
     23 H         140.0586  141.9192  163.5029 H       1  UNL1        0.1552
     24 C         140.8755  141.3340  166.0932 C.2     1  UNL1        0.0580
     25 C         140.1786  140.0363  166.3762 C.2     1  UNL1        0.0047
     26 C         139.3538  139.8836  167.6197 C.ar    1  UNL1        0.0003
     27 C         138.1631  138.9713  167.6227 C.ar    1  UNL1        0.0031
     28 C         137.3383  138.8186  168.8662 C.ar    1  UNL1        0.0372
     29 C         137.7041  139.5781  170.1068 C.ar    1  UNL1        0.1468
     30 C         138.8948  140.4904  170.1039 C.ar    1  UNL1        0.0372
     31 C         139.7197  140.6431  168.8604 C.ar    1  UNL1        0.0031
     32 O         136.8794  139.4255  171.3503 O.3     1  UNL1       -0.4045
     33 C         136.3473  138.0772  171.7366 C.3     1  UNL1        0.5753
     34 F         135.8153  136.7290  172.1229 F       1  UNL1       -0.1328
     35 F         137.7185  137.6640  172.1830 F       1  UNL1       -0.1328
     36 F         134.9762  138.4903  171.2902 F       1  UNL1       -0.1328
@<TRIPOS>BOND
     1     1     2    1
     2     2     3   ar
     3     3     4   ar
     4     4    12    1
     5    12    13    1
     6    13    14    1
     7    14    15    1
     8    15    16    1
     9    15    17    1
    10    17    18    1
    11     4     5   ar
    12     5     6   ar
    13     6     7   ar
    14     7     8   ar
    15     8     9   ar
    16     9    20    1
    17    20    21   am
    18    21    22    2
    19    21    24    1
    20    24    25    2
    21    25    26    1
    22    26    27   ar
    23    27    28   ar
    24    28    29   ar
    25    29    32    1
    26    32    33    1
    27    33    34    1
    28    33    35    1
    29    33    36    1
    30    29    30   ar
    31    30    31   ar
    32     9    10   ar
    33    10    11   ar
    34    11     2   ar
    35    18    12    1
    36    11     6   ar
    37    31    26   ar
    38    16    19    1
    39    20    23    1
@<TRIPOS>MOLECULE
*****
 36 39 0 0 0
SMALL
GASTEIGER

@<TRIPOS>ATOM
      1 C         139.8395  136.9390  155.3858 C.3     1  UNL1        0.0522
      2 C         141.2929  136.5717  155.4378 C.ar    1  UNL1        0.0637
      3 N         141.6986  135.1482  155.6808 N.ar    1  UNL1       -0.2180
      4 C         143.1520  134.7809  155.7328 C.ar    1  UNL1        0.2198
      5 N         144.1998  135.8372  155.5419 N.ar    1  UNL1       -0.2136
      6 C         143.7942  137.2608  155.2989 C.ar    1  UNL1        0.0854
      7 C         144.8420  138.3170  155.1080 C.ar    1  UNL1        0.0205
      8 C         144.4363  139.7405  154.8650 C.ar    1  UNL1        0.0162
      9 C         142.9829  140.1077  154.8130 C.ar    1  UNL1        0.0507
     10 C         141.9351  139.0515  155.0039 C.ar    1  UNL1        0.0174
     11 C         142.3408  137.6280  155.2469 C.ar    1  UNL1        0.0326
     12 N         143.5576  133.3574  155.9758 N.pl3   1  UNL1       -0.2780
     13 C         144.2853  132.9893  157.2347 C.3     1  UNL1        0.0961
     14 C         144.6909  131.5658  157.4776 C.3     1  UNL1        0.0508
     15 C         144.3687  130.5103  156.4617 C.3     1  UNL1        0.1139
     16 O         144.7743  129.0867  156.7046 O.3     1  UNL1       -0.3843
     17 C         143.6409  130.8784  155.2028 C.3     1  UNL1        0.0508
     18 C         143.2353  132.3019  154.9599 C.3     1  UNL1        0.0961
     19 H         145.2313  129.0218  157.5578 H       1  UNL1        0.2103
     20 N         142.5773  141.5313  154.5700 N.am    1  UNL1       -0.2804
     21 C         142.6156  142.5243  155.6936 C.2     1  UNL1        0.2496
     22 O         143.0594  142.0937  157.0603 O.2     1  UNL1       -0.2698
     23 H         142.2860  141.8139  153.6731 H       1  UNL1        0.1552
     24 C         142.2100  143.9479  155.4507 C.2     1  UNL1        0.0580
     25 C         140.7566  144.3122  155.3811 C.2     1  UNL1        0.0047
     26 C         140.3511  145.7357  155.1382 C.ar    1  UNL1        0.0003
     27 C         139.5070  146.4577  156.1464 C.ar    1  UNL1        0.0031
     28 C         139.1015  147.8812  155.9034 C.ar    1  UNL1        0.0372
     29 C         139.5400  148.5829  154.6522 C.ar    1  UNL1        0.1468
     30 C         140.3840  147.8610  153.6440 C.ar    1  UNL1        0.0372
     31 C         140.7895  146.4374  153.8870 C.ar    1  UNL1        0.0031
     32 O         139.1344  150.0064  154.4093 O.3     1  UNL1       -0.4045
     33 C         139.1473  150.9932  155.5390 C.3     1  UNL1        0.5753
     34 F         139.1602  151.9799  156.6686 F       1  UNL1       -0.1328
     35 F         137.7208  150.6522  155.8531 F       1  UNL1       -0.1328
     36 F         140.5738  151.3342  155.2248 F       1  UNL1       -0.1328
@<TRIPOS>BOND
     1     1     2    1
     2     2     3   ar
     3     3     4   ar
     4     4    12    1
     5    12    13    1
     6    13    14    1
     7    14    15    1
     8    15    16    1
     9    15    17    1
    10    17    18    1
    11     4     5   ar
    12     5     6   ar
    13     6     7   ar
    14     7     8   ar
    15     8     9   ar
    16     9    20    1
    17    20    21   am
    18    21    22    2
    19    21    24    1
    20    24    25    2
    21    25    26    1
    22    26    27   ar
    23    27    28   ar
    24    28    29   ar
    25    29    32    1
    26    32    33    1
    27    33    34    1
    28    33    35    1
    29    33    36    1
    30    29    30   ar
    31    30    31   ar
    32     9    10   ar
    33    10    11   ar
    34    11     2   ar
    35    18    12    1
    36    11     6   ar
    37    31    26   ar
    38    16    19    1
    39    20    23    1
@<TRIPOS>MOLECULE
*****
 36 39 0 0 0
SMALL
GASTEIGER

@<TRIPOS>ATOM
      1 C         140.5831  141.6430  158.3551 C.3     1  UNL1        0.0522
      2 C         140.7167  142.2067  156.9715 C.ar    1  UNL1        0.0637
      3 N         140.3938  143.6488  156.7148 N.ar    1  UNL1       -0.2180
      4 C         140.5274  144.2125  155.3312 C.ar    1  UNL1        0.2198
      5 N         140.9838  143.3341  154.2043 N.ar    1  UNL1       -0.2136
      6 C         141.3067  141.8919  154.4610 C.ar    1  UNL1        0.0854
      7 C         141.7631  141.0134  153.3340 C.ar    1  UNL1        0.0205
      8 C         142.0859  139.5713  153.5907 C.ar    1  UNL1        0.0162
      9 C         141.9523  139.0076  154.9743 C.ar    1  UNL1        0.0507
     10 C         141.4959  139.8860  156.1013 C.ar    1  UNL1        0.0174
     11 C         141.1731  141.3282  155.8446 C.ar    1  UNL1        0.0326
     12 N         140.2045  145.6548  155.0746 N.pl3   1  UNL1       -0.2780
     13 C         140.7676  146.3462  153.8684 C.3     1  UNL1        0.0961
     14 C         140.4447  147.7884  153.6118 C.3     1  UNL1        0.0508
     15 C         139.5588  148.5391  154.5614 C.3     1  UNL1        0.1139
     16 O         139.2360  149.9813  154.3047 O.3     1  UNL1       -0.3843
     17 C         138.9958  147.8476  155.7675 C.3     1  UNL1        0.0508
     18 C         139.3187  146.4055  156.0241 C.3     1  UNL1        0.0961
     19 H         139.6764  150.2713  153.4906 H       1  UNL1        0.2103
     20 N         142.2752  137.5653  155.2310 N.am    1  UNL1       -0.2804
     21 C         143.6814  137.1582  155.5576 C.2     1  UNL1        0.2496
     22 O         144.7649  138.1932  155.6275 O.2     1  UNL1       -0.2698
     23 H         141.5641  136.8860  155.1851 H       1  UNL1        0.1552
     24 C         144.0043  135.7160  155.8142 C.2     1  UNL1        0.0580
     25 C         143.1392  134.9058  156.7335 C.2     1  UNL1        0.0047
     26 C         143.4620  133.4637  156.9902 C.ar    1  UNL1        0.0003
     27 C         144.6826  133.0977  157.7816 C.ar    1  UNL1        0.0031
     28 C         145.0055  131.6555  158.0382 C.ar    1  UNL1        0.0372
     29 C         144.1079  130.5793  157.5034 C.ar    1  UNL1        0.1468
     30 C         142.8873  130.9452  156.7120 C.ar    1  UNL1        0.0372
     31 C         142.5644  132.3875  156.4553 C.ar    1  UNL1        0.0031
     32 O         144.4307  129.1372  157.7600 O.3     1  UNL1       -0.4045
     33 C         144.4561  128.6128  159.1652 C.3     1  UNL1        0.5753
     34 F         144.4815  128.0884  160.5703 F       1  UNL1       -0.1328
     35 F         143.0187  129.0053  159.3377 F       1  UNL1       -0.1328
     36 F         145.8935  128.2203  158.9927 F       1  UNL1       -0.1328
@<TRIPOS>BOND
     1     1     2    1
     2     2     3   ar
     3     3     4   ar
     4     4    12    1
     5    12    13    1
     6    13    14    1
     7    14    15    1
     8    15    16    1
     9    15    17    1
    10    17    18    1
    11     4     5   ar
    12     5     6   ar
    13     6     7   ar
    14     7     8   ar
    15     8     9   ar
    16     9    20    1
    17    20    21   am
    18    21    22    2
    19    21    24    1
    20    24    25    2
    21    25    26    1
    22    26    27   ar
    23    27    28   ar
    24    28    29   ar
    25    29    32    1
    26    32    33    1
    27    33    34    1
    28    33    35    1
    29    33    36    1
    30    29    30   ar
    31    30    31   ar
    32     9    10   ar
    33    10    11   ar
    34    11     2   ar
    35    18    12    1
    36    11     6   ar
    37    31    26   ar
    38    16    19    1
    39    20    23    1
