@<TRIPOS>MOLECULE
*****
 32 35 0 0 0
SMALL
GASTEIGER

@<TRIPOS>ATOM
      1 C         143.1055  143.2612  160.5098 C.3     1  UNL1        0.0913
      2 N         142.9914  142.6735  161.8852 N.3     1  UNL1       -0.2673
      3 C         142.3301  141.3411  162.0789 C.3     1  UNL1        0.1035
      4 C         142.2160  140.7534  163.4542 C.3     1  UNL1        0.1470
      5 C         142.1018  140.1657  164.8296 C.3     1  UNL1        0.1037
      6 N         142.6489  140.9103  166.0112 N.3     1  UNL1       -0.2647
      7 C         143.3102  142.2427  165.8174 C.3     1  UNL1        0.1037
      8 C         143.4243  142.8304  164.4421 C.3     1  UNL1        0.1470
      9 C         143.5385  143.4181  163.0668 C.3     1  UNL1        0.1035
     10 O         142.7631  141.4981  164.6358 O.3     1  UNL1       -0.3530
     11 C         142.5348  140.3226  167.3865 C.3     1  UNL1        0.0993
     12 C         141.5340  140.8752  168.3576 C.ar    1  UNL1       -0.0061
     13 C         141.7478  142.2296  168.9657 C.ar    1  UNL1       -0.0029
     14 C         140.7471  142.7823  169.9368 C.ar    1  UNL1       -0.0003
     15 C         139.5324  141.9805  170.2997 C.ar    1  UNL1       -0.0000
     16 C         139.3186  140.6261  169.6916 C.ar    1  UNL1       -0.0003
     17 C         140.3193  140.0735  168.7205 C.ar    1  UNL1       -0.0029
     18 C         141.9798  144.0773  159.9471 C.3     1  UNL1        0.1084
     19 N         141.5033  145.2998  160.6742 N.3     1  UNL1       -0.1816
     20 H         142.2908  145.6398  161.2261 H       1  UNL1        0.1485
     21 S         140.3297  145.2097  161.6040 S.O2    1  UNL1        0.0451
     22 O         141.1408  145.8522  162.6899 O.2     1  UNL1       -0.1572
     23 O         139.5187  144.5671  160.5181 O.2     1  UNL1       -0.1572
     24 C         139.1562  145.1195  162.5338 C.3     1  UNL1        0.1952
     25 C         138.3662  141.3113  164.7973 C.ar    1  UNL1        0.0684
     26 C         137.6421  141.5840  163.5123 C.ar    1  UNL1        0.0100
     27 C         137.9054  142.8534  162.7578 C.ar    1  UNL1       -0.0018
     28 C         138.8928  143.8501  163.2883 C.ar    1  UNL1        0.0030
     29 C         139.6170  143.5775  164.5734 C.ar    1  UNL1       -0.0018
     30 C         139.3536  142.3081  165.3279 C.ar    1  UNL1        0.0100
     31 N         137.8395  138.7725  166.3063 N.1     1  UNL1       -0.1908
     32 C         138.1028  140.0419  165.5518 C.1     1  UNL1        0.1004
@<TRIPOS>BOND
     1    31    32    3
     2    32    25    1
     3    25    26   ar
     4    26    27   ar
     5    27    28   ar
     6    28    24    1
     7    24    21    1
     8    21    22    2
     9    21    23    2
    10    21    19    1
    11    19    18    1
    12    18     1    1
    13     1     2    1
    14     2     3    1
    15     3     4    1
    16     4     5    1
    17     5     6    1
    18     6    11    1
    19    11    12    1
    20    12    13   ar
    21    13    14   ar
    22    14    15   ar
    23    15    16   ar
    24    16    17   ar
    25     6     7    1
    26     7     8    1
    27     8     9    1
    28     8    10    1
    29    28    29   ar
    30    29    30   ar
    31    30    25   ar
    32     9     2    1
    33    10     4    1
    34    17    12   ar
    35    19    20    1
@<TRIPOS>MOLECULE
*****
 32 35 0 0 0
SMALL
GASTEIGER

@<TRIPOS>ATOM
      1 C         139.5903  145.4980  161.9286 C.3     1  UNL1        0.0913
      2 N         139.5275  144.4130  162.9625 N.3     1  UNL1       -0.2673
      3 C         138.7111  143.1807  162.7079 C.3     1  UNL1        0.1035
      4 C         138.6483  142.0958  163.7418 C.3     1  UNL1        0.1470
      5 C         138.5855  141.0108  164.7757 C.3     1  UNL1        0.1037
      6 N         139.3391  141.1582  166.0643 N.3     1  UNL1       -0.2647
      7 C         140.1556  142.3906  166.3189 C.3     1  UNL1        0.1037
      8 C         140.2183  143.4755  165.2849 C.3     1  UNL1        0.1470
      9 C         140.2811  144.5604  164.2510 C.3     1  UNL1        0.1035
     10 O         139.4019  142.2432  165.0303 O.3     1  UNL1       -0.3530
     11 C         139.2764  140.0733  167.0982 C.3     1  UNL1        0.0993
     12 C         140.1486  140.1468  168.3164 C.ar    1  UNL1       -0.0061
     13 C         139.5535  140.5124  169.6438 C.ar    1  UNL1       -0.0029
     14 C         140.4256  140.5859  170.8620 C.ar    1  UNL1       -0.0003
     15 C         141.8928  140.2938  170.7527 C.ar    1  UNL1       -0.0000
     16 C         142.4878  139.9281  169.4252 C.ar    1  UNL1       -0.0003
     17 C         141.6157  139.8546  168.2071 C.ar    1  UNL1       -0.0029
     18 C         140.5871  145.4123  160.8111 C.3     1  UNL1        0.1084
     19 N         142.0198  145.0810  161.1078 N.3     1  UNL1       -0.1816
     20 H         142.5900  145.6729  160.5037 H       1  UNL1        0.1485
     21 S         142.5167  143.6767  160.9321 S.O2    1  UNL1        0.0451
     22 O         141.2829  143.3380  160.1492 O.2     1  UNL1       -0.1572
     23 O         143.7505  144.0154  161.7150 O.2     1  UNL1       -0.1572
     24 C         143.0137  142.2724  160.7564 C.3     1  UNL1        0.1952
     25 C         143.6726  139.6521  164.3550 C.ar    1  UNL1        0.0684
     26 C         142.3088  140.2088  164.0723 C.ar    1  UNL1        0.0100
     27 C         142.0891  141.0823  162.8727 C.ar    1  UNL1       -0.0018
     28 C         143.2333  141.3990  161.9560 C.ar    1  UNL1        0.0030
     29 C         144.5972  140.8423  162.2387 C.ar    1  UNL1       -0.0018
     30 C         144.8169  139.9688  163.4382 C.ar    1  UNL1        0.0100
     31 N         144.1119  137.9053  166.7541 N.1     1  UNL1       -0.1908
     32 C         143.8923  138.7787  165.5546 C.1     1  UNL1        0.1004
@<TRIPOS>BOND
     1    31    32    3
     2    32    25    1
     3    25    26   ar
     4    26    27   ar
     5    27    28   ar
     6    28    24    1
     7    24    21    1
     8    21    22    2
     9    21    23    2
    10    21    19    1
    11    19    18    1
    12    18     1    1
    13     1     2    1
    14     2     3    1
    15     3     4    1
    16     4     5    1
    17     5     6    1
    18     6    11    1
    19    11    12    1
    20    12    13   ar
    21    13    14   ar
    22    14    15   ar
    23    15    16   ar
    24    16    17   ar
    25     6     7    1
    26     7     8    1
    27     8     9    1
    28     8    10    1
    29    28    29   ar
    30    29    30   ar
    31    30    25   ar
    32     9     2    1
    33    10     4    1
    34    17    12   ar
    35    19    20    1
@<TRIPOS>MOLECULE
*****
 32 35 0 0 0
SMALL
GASTEIGER

@<TRIPOS>ATOM
      1 C         139.4508  143.1475  159.3981 C.3     1  UNL1        0.0913
      2 N         140.2555  143.0962  160.6630 N.3     1  UNL1       -0.2673
      3 C         141.7358  142.8624  160.6012 C.3     1  UNL1        0.1035
      4 C         142.5404  142.8111  161.8661 C.3     1  UNL1        0.1470
      5 C         143.3450  142.7598  163.1311 C.3     1  UNL1        0.1037
      6 N         142.6693  142.9424  164.4577 N.3     1  UNL1       -0.2647
      7 C         141.1888  143.1762  164.5194 C.3     1  UNL1        0.1037
      8 C         140.3843  143.2274  163.2546 C.3     1  UNL1        0.1470
      9 C         139.5797  143.2787  161.9897 C.3     1  UNL1        0.1035
     10 O         141.8646  142.9936  163.1928 O.3     1  UNL1       -0.3530
     11 C         143.4738  142.8911  165.7226 C.3     1  UNL1        0.0993
     12 C         143.1653  141.8590  166.7665 C.ar    1  UNL1       -0.0061
     13 C         143.1406  142.2428  168.2164 C.ar    1  UNL1       -0.0029
     14 C         142.8321  141.2108  169.2602 C.ar    1  UNL1       -0.0003
     15 C         142.5481  139.7950  168.8542 C.ar    1  UNL1       -0.0000
     16 C         142.5727  139.4112  167.4044 C.ar    1  UNL1       -0.0003
     17 C         142.8813  140.4432  166.3605 C.ar    1  UNL1       -0.0029
     18 C         138.7284  141.9235  158.9186 C.3     1  UNL1        0.1084
     19 N         139.3611  140.5718  159.0696 N.3     1  UNL1       -0.1816
     20 H         139.3417  140.1330  158.1490 H       1  UNL1        0.1485
     21 S         138.7860  139.5782  160.0350 S.O2    1  UNL1        0.0451
     22 O         140.1701  139.2104  160.4811 O.2     1  UNL1       -0.1572
     23 O         137.4019  139.9459  159.5890 O.2     1  UNL1       -0.1572
     24 C         138.2109  138.5846  161.0004 C.3     1  UNL1        0.1952
     25 C         138.6768  139.2225  165.4305 C.ar    1  UNL1        0.0684
     26 C         138.1634  140.3331  164.5628 C.ar    1  UNL1        0.0100
     27 C         138.0081  140.1204  163.0861 C.ar    1  UNL1       -0.0018
     28 C         138.3662  138.7972  162.4771 C.ar    1  UNL1        0.0030
     29 C         138.8797  137.6866  163.3449 C.ar    1  UNL1       -0.0018
     30 C         139.0350  137.8992  164.8216 C.ar    1  UNL1        0.0100
     31 N         138.9874  139.6478  168.3839 N.1     1  UNL1       -0.1908
     32 C         138.8321  139.4352  166.9072 C.1     1  UNL1        0.1004
@<TRIPOS>BOND
     1    31    32    3
     2    32    25    1
     3    25    26   ar
     4    26    27   ar
     5    27    28   ar
     6    28    24    1
     7    24    21    1
     8    21    22    2
     9    21    23    2
    10    21    19    1
    11    19    18    1
    12    18     1    1
    13     1     2    1
    14     2     3    1
    15     3     4    1
    16     4     5    1
    17     5     6    1
    18     6    11    1
    19    11    12    1
    20    12    13   ar
    21    13    14   ar
    22    14    15   ar
    23    15    16   ar
    24    16    17   ar
    25     6     7    1
    26     7     8    1
    27     8     9    1
    28     8    10    1
    29    28    29   ar
    30    29    30   ar
    31    30    25   ar
    32     9     2    1
    33    10     4    1
    34    17    12   ar
    35    19    20    1
@<TRIPOS>MOLECULE
*****
 32 35 0 0 0
SMALL
GASTEIGER

@<TRIPOS>ATOM
      1 C         139.2359  139.3688  159.2551 C.3     1  UNL1        0.0913
      2 N         139.0355  139.2917  160.7397 N.3     1  UNL1       -0.2673
      3 C         139.3126  138.0102  161.4684 C.3     1  UNL1        0.1035
      4 C         139.1122  137.9331  162.9529 C.3     1  UNL1        0.1470
      5 C         138.9119  137.8560  164.4375 C.3     1  UNL1        0.1037
      6 N         138.4344  139.0605  165.1934 N.3     1  UNL1       -0.2647
      7 C         138.1574  140.3420  164.4647 C.3     1  UNL1        0.1037
      8 C         138.3577  140.4191  162.9802 C.3     1  UNL1        0.1470
      9 C         138.5581  140.4961  161.4956 C.3     1  UNL1        0.1035
     10 O         138.6348  139.1376  163.7088 O.3     1  UNL1       -0.3530
     11 C         138.2341  138.9834  166.6779 C.3     1  UNL1        0.0993
     12 C         139.2282  139.6207  167.6030 C.ar    1  UNL1       -0.0061
     13 C         138.8207  139.9995  168.9960 C.ar    1  UNL1       -0.0029
     14 C         139.8147  140.6368  169.9211 C.ar    1  UNL1       -0.0003
     15 C         141.2162  140.8953  169.4532 C.ar    1  UNL1       -0.0000
     16 C         141.6236  140.5165  168.0601 C.ar    1  UNL1       -0.0003
     17 C         140.6296  139.8792  167.1351 C.ar    1  UNL1       -0.0029
     18 C         140.0484  140.4830  158.6649 C.3     1  UNL1        0.1084
     19 N         141.5442  140.3793  158.6221 N.3     1  UNL1       -0.1816
     20 H         141.7692  139.3857  158.5722 H       1  UNL1        0.1485
     21 S         142.3680  140.9543  159.7360 S.O2    1  UNL1        0.0451
     22 O         143.3523  139.8323  159.5872 O.2     1  UNL1       -0.1572
     23 O         141.3837  142.0763  159.8847 O.2     1  UNL1       -0.1572
     24 C         143.1918  141.5293  160.8498 C.3     1  UNL1        0.1952
     25 C         143.7494  139.2094  164.6652 C.ar    1  UNL1        0.0684
     26 C         142.3802  139.3572  164.0705 C.ar    1  UNL1        0.0100
     27 C         142.1944  140.1305  162.7987 C.ar    1  UNL1       -0.0018
     28 C         143.3776  140.7560  162.1216 C.ar    1  UNL1        0.0030
     29 C         144.7469  140.6082  162.7162 C.ar    1  UNL1       -0.0018
     30 C         144.9327  139.8349  163.9880 C.ar    1  UNL1        0.0100
     31 N         144.1211  137.6628  167.2087 N.1     1  UNL1       -0.1908
     32 C         143.9352  138.4361  165.9369 C.1     1  UNL1        0.1004
@<TRIPOS>BOND
     1    31    32    3
     2    32    25    1
     3    25    26   ar
     4    26    27   ar
     5    27    28   ar
     6    28    24    1
     7    24    21    1
     8    21    22    2
     9    21    23    2
    10    21    19    1
    11    19    18    1
    12    18     1    1
    13     1     2    1
    14     2     3    1
    15     3     4    1
    16     4     5    1
    17     5     6    1
    18     6    11    1
    19    11    12    1
    20    12    13   ar
    21    13    14   ar
    22    14    15   ar
    23    15    16   ar
    24    16    17   ar
    25     6     7    1
    26     7     8    1
    27     8     9    1
    28     8    10    1
    29    28    29   ar
    30    29    30   ar
    31    30    25   ar
    32     9     2    1
    33    10     4    1
    34    17    12   ar
    35    19    20    1
@<TRIPOS>MOLECULE
*****
 32 35 0 0 0
SMALL
GASTEIGER

@<TRIPOS>ATOM
      1 C         138.9082  138.6641  160.7657 C.3     1  UNL1        0.0913
      2 N         139.7299  138.6979  162.0203 N.3     1  UNL1       -0.2673
      3 C         141.2234  138.8080  161.9359 C.3     1  UNL1        0.1035
      4 C         142.0450  138.8418  163.1904 C.3     1  UNL1        0.1470
      5 C         142.8667  138.8756  164.4449 C.3     1  UNL1        0.1037
      6 N         142.1947  138.7994  165.7838 N.3     1  UNL1       -0.2647
      7 C         140.7011  138.6893  165.8682 C.3     1  UNL1        0.1037
      8 C         139.8795  138.6555  164.6137 C.3     1  UNL1        0.1470
      9 C         139.0579  138.6217  163.3592 C.3     1  UNL1        0.1035
     10 O         141.3730  138.7656  164.5293 O.3     1  UNL1       -0.3530
     11 C         143.0163  138.8332  167.0383 C.3     1  UNL1        0.0993
     12 C         142.7457  139.8738  168.0843 C.ar    1  UNL1       -0.0061
     13 C         142.5319  139.4648  169.5115 C.ar    1  UNL1       -0.0029
     14 C         142.2613  140.5053  170.5574 C.ar    1  UNL1       -0.0003
     15 C         142.2045  141.9549  170.1762 C.ar    1  UNL1       -0.0000
     16 C         142.4183  142.3639  168.7489 C.ar    1  UNL1       -0.0003
     17 C         142.6889  141.3234  167.7030 C.ar    1  UNL1       -0.0029
     18 C         138.1656  139.8896  160.3223 C.3     1  UNL1        0.1084
     19 N         137.3109  140.6428  161.2982 N.3     1  UNL1       -0.1816
     20 H         136.4105  140.7960  160.8440 H       1  UNL1        0.1485
     21 S         137.7642  141.9737  161.8208 S.O2    1  UNL1        0.0451
     22 O         138.5525  142.1985  160.5646 O.2     1  UNL1       -0.1572
     23 O         136.9759  141.7490  163.0769 O.2     1  UNL1       -0.1572
     24 C         138.2175  143.3046  162.3434 C.3     1  UNL1        0.1952
     25 C         142.2032  143.6757  164.3993 C.ar    1  UNL1        0.0684
     26 C         141.5265  144.8961  163.8491 C.ar    1  UNL1        0.0100
     27 C         140.1980  144.7724  163.1638 C.ar    1  UNL1       -0.0018
     28 C         139.5460  143.4283  163.0287 C.ar    1  UNL1        0.0030
     29 C         140.2226  142.2078  163.5789 C.ar    1  UNL1       -0.0018
     30 C         141.5512  142.3315  164.2642 C.ar    1  UNL1        0.0100
     31 N         144.8603  143.9232  165.7699 N.1     1  UNL1       -0.1908
     32 C         143.5317  143.7994  165.0846 C.1     1  UNL1        0.1004
@<TRIPOS>BOND
     1    31    32    3
     2    32    25    1
     3    25    26   ar
     4    26    27   ar
     5    27    28   ar
     6    28    24    1
     7    24    21    1
     8    21    22    2
     9    21    23    2
    10    21    19    1
    11    19    18    1
    12    18     1    1
    13     1     2    1
    14     2     3    1
    15     3     4    1
    16     4     5    1
    17     5     6    1
    18     6    11    1
    19    11    12    1
    20    12    13   ar
    21    13    14   ar
    22    14    15   ar
    23    15    16   ar
    24    16    17   ar
    25     6     7    1
    26     7     8    1
    27     8     9    1
    28     8    10    1
    29    28    29   ar
    30    29    30   ar
    31    30    25   ar
    32     9     2    1
    33    10     4    1
    34    17    12   ar
    35    19    20    1
@<TRIPOS>MOLECULE
*****
 32 35 0 0 0
SMALL
GASTEIGER

@<TRIPOS>ATOM
      1 C         140.0859  142.4237  160.7123 C.3     1  UNL1        0.0913
      2 N         140.6912  142.3820  162.0842 N.3     1  UNL1       -0.2673
      3 C         142.0790  141.8463  162.2757 C.3     1  UNL1        0.1035
      4 C         142.6842  141.8046  163.6475 C.3     1  UNL1        0.1470
      5 C         143.2894  141.7629  165.0194 C.3     1  UNL1        0.1037
      6 N         142.5067  142.2570  166.1998 N.3     1  UNL1       -0.2647
      7 C         141.1188  142.7928  166.0082 C.3     1  UNL1        0.1037
      8 C         140.5136  142.8345  164.6364 C.3     1  UNL1        0.1470
      9 C         139.9085  142.8761  163.2646 C.3     1  UNL1        0.1035
     10 O         141.9015  142.2987  164.8279 O.3     1  UNL1       -0.3530
     11 C         143.1119  142.2153  167.5716 C.3     1  UNL1        0.0993
     12 C         142.3223  141.6674  168.7234 C.ar    1  UNL1       -0.0061
     13 C         142.1205  140.1871  168.8575 C.ar    1  UNL1       -0.0029
     14 C         141.3310  139.6391  170.0092 C.ar    1  UNL1       -0.0003
     15 C         140.7433  140.5714  171.0267 C.ar    1  UNL1       -0.0000
     16 C         140.9452  142.0517  170.8925 C.ar    1  UNL1       -0.0003
     17 C         141.7347  142.5997  169.7408 C.ar    1  UNL1       -0.0029
     18 C         138.6013  142.2925  160.5432 C.3     1  UNL1        0.1084
     19 N         137.9971  140.9550  160.2329 N.3     1  UNL1       -0.1816
     20 H         137.0125  141.1184  160.0225 H       1  UNL1        0.1485
     21 S         138.0454  139.8556  161.2521 S.O2    1  UNL1        0.0451
     22 O         137.3701  140.7500  162.2490 O.2     1  UNL1       -0.1572
     23 O         138.7207  138.9611  160.2553 O.2     1  UNL1       -0.1572
     24 C         138.0937  138.7561  162.2714 C.3     1  UNL1        0.1952
     25 C         141.7042  138.2987  164.9181 C.ar    1  UNL1        0.0684
     26 C         141.6676  137.6281  163.5769 C.ar    1  UNL1        0.0100
     27 C         140.4642  137.7805  162.6947 C.ar    1  UNL1       -0.0018
     28 C         139.2972  138.6036  163.1536 C.ar    1  UNL1        0.0030
     29 C         139.3337  139.2743  164.4949 C.ar    1  UNL1       -0.0018
     30 C         140.5372  139.1218  165.3772 C.ar    1  UNL1        0.0100
     31 N         144.1111  137.9937  166.6827 N.1     1  UNL1       -0.1908
     32 C         142.9076  138.1462  165.8004 C.1     1  UNL1        0.1004
@<TRIPOS>BOND
     1    31    32    3
     2    32    25    1
     3    25    26   ar
     4    26    27   ar
     5    27    28   ar
     6    28    24    1
     7    24    21    1
     8    21    22    2
     9    21    23    2
    10    21    19    1
    11    19    18    1
    12    18     1    1
    13     1     2    1
    14     2     3    1
    15     3     4    1
    16     4     5    1
    17     5     6    1
    18     6    11    1
    19    11    12    1
    20    12    13   ar
    21    13    14   ar
    22    14    15   ar
    23    15    16   ar
    24    16    17   ar
    25     6     7    1
    26     7     8    1
    27     8     9    1
    28     8    10    1
    29    28    29   ar
    30    29    30   ar
    31    30    25   ar
    32     9     2    1
    33    10     4    1
    34    17    12   ar
    35    19    20    1
@<TRIPOS>MOLECULE
*****
 32 35 0 0 0
SMALL
GASTEIGER

@<TRIPOS>ATOM
      1 C         143.8184  138.3317  160.6796 C.3     1  UNL1        0.0913
      2 N         143.6346  139.0302  161.9943 N.3     1  UNL1       -0.2673
      3 C         144.4094  140.2789  162.2949 C.3     1  UNL1        0.1035
      4 C         144.2255  140.9773  163.6096 C.3     1  UNL1        0.1470
      5 C         144.0417  141.6758  164.9243 C.3     1  UNL1        0.1037
      6 N         143.0831  141.1256  165.9383 N.3     1  UNL1       -0.2647
      7 C         142.3083  139.8768  165.6377 C.3     1  UNL1        0.1037
      8 C         142.4921  139.1784  164.3230 C.3     1  UNL1        0.1470
      9 C         142.6760  138.4799  163.0084 C.3     1  UNL1        0.1035
     10 O         143.2669  140.4271  164.6236 O.3     1  UNL1       -0.3530
     11 C         142.8993  141.8240  167.2530 C.3     1  UNL1        0.0993
     12 C         142.0345  141.2103  168.3139 C.ar    1  UNL1       -0.0061
     13 C         142.5825  140.1259  169.1936 C.ar    1  UNL1       -0.0029
     14 C         141.7178  139.5122  170.2545 C.ar    1  UNL1       -0.0003
     15 C         140.3051  139.9827  170.4357 C.ar    1  UNL1       -0.0000
     16 C         139.7571  141.0670  169.5559 C.ar    1  UNL1       -0.0003
     17 C         140.6218  141.6808  168.4950 C.ar    1  UNL1       -0.0029
     18 C         142.7435  138.4028  159.6358 C.3     1  UNL1        0.1084
     19 N         141.9340  139.6556  159.4770 N.3     1  UNL1       -0.1816
     20 H         142.4538  140.4024  159.9379 H       1  UNL1        0.1485
     21 S         140.5314  139.7143  160.0055 S.O2    1  UNL1        0.0451
     22 O         140.1976  138.4566  159.2592 O.2     1  UNL1       -0.1572
     23 O         140.8652  140.9719  160.7517 O.2     1  UNL1       -0.1572
     24 C         139.1288  139.7729  160.5339 C.3     1  UNL1        0.1952
     25 C         138.3456  139.1099  164.9153 C.ar    1  UNL1        0.0684
     26 C         138.9071  137.9997  164.0774 C.ar    1  UNL1        0.0100
     27 C         139.1682  138.2207  162.6169 C.ar    1  UNL1       -0.0018
     28 C         138.8677  139.5519  161.9944 C.ar    1  UNL1        0.0030
     29 C         138.3061  140.6621  162.8323 C.ar    1  UNL1       -0.0018
     30 C         138.0450  140.4411  164.2928 C.ar    1  UNL1        0.0100
     31 N         137.8234  138.6678  167.8363 N.1     1  UNL1       -0.1908
     32 C         138.0845  138.8888  166.3758 C.1     1  UNL1        0.1004
@<TRIPOS>BOND
     1    31    32    3
     2    32    25    1
     3    25    26   ar
     4    26    27   ar
     5    27    28   ar
     6    28    24    1
     7    24    21    1
     8    21    22    2
     9    21    23    2
    10    21    19    1
    11    19    18    1
    12    18     1    1
    13     1     2    1
    14     2     3    1
    15     3     4    1
    16     4     5    1
    17     5     6    1
    18     6    11    1
    19    11    12    1
    20    12    13   ar
    21    13    14   ar
    22    14    15   ar
    23    15    16   ar
    24    16    17   ar
    25     6     7    1
    26     7     8    1
    27     8     9    1
    28     8    10    1
    29    28    29   ar
    30    29    30   ar
    31    30    25   ar
    32     9     2    1
    33    10     4    1
    34    17    12   ar
    35    19    20    1
@<TRIPOS>MOLECULE
*****
 32 35 0 0 0
SMALL
GASTEIGER

@<TRIPOS>ATOM
      1 C         143.7621  139.5077  160.3973 C.3     1  UNL1        0.0913
      2 N         143.5322  139.5295  161.8794 N.3     1  UNL1       -0.2673
      3 C         142.9472  138.3307  162.5654 C.3     1  UNL1        0.1035
      4 C         142.7173  138.3525  164.0475 C.3     1  UNL1        0.1470
      5 C         142.4874  138.3743  165.5296 C.3     1  UNL1        0.1037
      6 N         142.8424  139.5950  166.3258 N.3     1  UNL1       -0.2647
      7 C         143.4274  140.7939  165.6398 C.3     1  UNL1        0.1037
      8 C         143.6573  140.7720  164.1577 C.3     1  UNL1        0.1470
      9 C         143.8872  140.7502  162.6756 C.3     1  UNL1        0.1035
     10 O         143.0724  139.5732  164.8436 O.3     1  UNL1       -0.3530
     11 C         142.6125  139.6168  167.8079 C.3     1  UNL1        0.0993
     12 C         142.1918  140.8886  168.4829 C.ar    1  UNL1       -0.0061
     13 C         140.8395  141.4743  168.2032 C.ar    1  UNL1       -0.0029
     14 C         140.4188  142.7460  168.8782 C.ar    1  UNL1       -0.0003
     15 C         141.3503  143.4320  169.8330 C.ar    1  UNL1       -0.0000
     16 C         142.7026  142.8462  170.1128 C.ar    1  UNL1       -0.0003
     17 C         143.1233  141.5745  169.4377 C.ar    1  UNL1       -0.0029
     18 C         142.6778  139.0310  159.4770 C.3     1  UNL1        0.1084
     19 N         141.5403  139.9425  159.1225 N.3     1  UNL1       -0.1816
     20 H         141.8308  140.8873  159.3742 H       1  UNL1        0.1485
     21 S         140.1881  139.7275  159.7350 S.O2    1  UNL1        0.0451
     22 O         140.2331  141.1084  160.3191 O.2     1  UNL1       -0.1572
     23 O         140.1431  138.3467  159.1509 O.2     1  UNL1       -0.1572
     24 C         138.8358  139.5126  160.3474 C.3     1  UNL1        0.1952
     25 C         138.4200  139.1529  164.8137 C.ar    1  UNL1        0.0684
     26 C         137.9612  140.3988  164.1157 C.ar    1  UNL1        0.0100
     27 C         138.0998  140.5186  162.6269 C.ar    1  UNL1       -0.0018
     28 C         138.6972  139.3927  161.8362 C.ar    1  UNL1        0.0030
     29 C         139.1561  138.1468  162.5343 C.ar    1  UNL1       -0.0018
     30 C         139.0175  138.0269  164.0230 C.ar    1  UNL1        0.0100
     31 N         138.1428  138.9132  167.7913 N.1     1  UNL1       -0.1908
     32 C         138.2814  139.0330  166.3025 C.1     1  UNL1        0.1004
@<TRIPOS>BOND
     1    31    32    3
     2    32    25    1
     3    25    26   ar
     4    26    27   ar
     5    27    28   ar
     6    28    24    1
     7    24    21    1
     8    21    22    2
     9    21    23    2
    10    21    19    1
    11    19    18    1
    12    18     1    1
    13     1     2    1
    14     2     3    1
    15     3     4    1
    16     4     5    1
    17     5     6    1
    18     6    11    1
    19    11    12    1
    20    12    13   ar
    21    13    14   ar
    22    14    15   ar
    23    15    16   ar
    24    16    17   ar
    25     6     7    1
    26     7     8    1
    27     8     9    1
    28     8    10    1
    29    28    29   ar
    30    29    30   ar
    31    30    25   ar
    32     9     2    1
    33    10     4    1
    34    17    12   ar
    35    19    20    1
@<TRIPOS>MOLECULE
*****
 32 35 0 0 0
SMALL
GASTEIGER

@<TRIPOS>ATOM
      1 C         142.5956  139.7362  160.2908 C.3     1  UNL1        0.0913
      2 N         142.5472  139.6991  161.7896 N.3     1  UNL1       -0.2673
      3 C         143.3330  138.6650  162.5400 C.3     1  UNL1        0.1035
      4 C         143.2846  138.6280  164.0387 C.3     1  UNL1        0.1470
      5 C         143.2363  138.5909  165.5375 C.3     1  UNL1        0.1037
      6 N         142.4021  139.5879  166.2859 N.3     1  UNL1       -0.2647
      7 C         141.6162  140.6220  165.5354 C.3     1  UNL1        0.1037
      8 C         141.6646  140.6591  164.0367 C.3     1  UNL1        0.1470
      9 C         141.7130  140.6961  162.5379 C.3     1  UNL1        0.1035
     10 O         142.4504  139.6250  164.7871 O.3     1  UNL1       -0.3530
     11 C         142.3537  139.5509  167.7846 C.3     1  UNL1        0.0993
     12 C         141.7807  140.7098  168.5454 C.ar    1  UNL1       -0.0061
     13 C         142.6585  141.8655  168.9246 C.ar    1  UNL1       -0.0029
     14 C         142.0856  143.0244  169.6853 C.ar    1  UNL1       -0.0003
     15 C         140.6350  143.0276  170.0669 C.ar    1  UNL1       -0.0000
     16 C         139.7572  141.8718  169.6877 C.ar    1  UNL1       -0.0003
     17 C         140.3301  140.7129  168.9270 C.ar    1  UNL1       -0.0029
     18 C         141.3217  139.7285  159.4989 C.3     1  UNL1        0.1084
     19 N         140.2357  138.7499  159.8347 N.3     1  UNL1       -0.1816
     20 H         139.9156  138.3509  158.9522 H       1  UNL1        0.1485
     21 S         139.0124  139.2103  160.5706 S.O2    1  UNL1        0.0451
     22 O         138.6971  140.1594  159.4527 O.2     1  UNL1       -0.1572
     23 O         139.3277  138.2612  161.6885 O.2     1  UNL1       -0.1572
     24 C         137.7892  139.6707  161.3066 C.3     1  UNL1        0.1952
     25 C         138.0585  143.1235  164.1799 C.ar    1  UNL1        0.0684
     26 C         137.9807  143.3802  162.7041 C.ar    1  UNL1        0.0100
     27 C         137.8909  142.2293  161.7463 C.ar    1  UNL1       -0.0018
     28 C         137.8790  140.8216  162.2643 C.ar    1  UNL1        0.0030
     29 C         137.9567  140.5649  163.7402 C.ar    1  UNL1       -0.0018
     30 C         138.0465  141.7158  164.6980 C.ar    1  UNL1        0.0100
     31 N         138.2380  145.4253  166.0955 N.1     1  UNL1       -0.1908
     32 C         138.1482  144.2744  165.1377 C.1     1  UNL1        0.1004
@<TRIPOS>BOND
     1    31    32    3
     2    32    25    1
     3    25    26   ar
     4    26    27   ar
     5    27    28   ar
     6    28    24    1
     7    24    21    1
     8    21    22    2
     9    21    23    2
    10    21    19    1
    11    19    18    1
    12    18     1    1
    13     1     2    1
    14     2     3    1
    15     3     4    1
    16     4     5    1
    17     5     6    1
    18     6    11    1
    19    11    12    1
    20    12    13   ar
    21    13    14   ar
    22    14    15   ar
    23    15    16   ar
    24    16    17   ar
    25     6     7    1
    26     7     8    1
    27     8     9    1
    28     8    10    1
    29    28    29   ar
    30    29    30   ar
    31    30    25   ar
    32     9     2    1
    33    10     4    1
    34    17    12   ar
    35    19    20    1
