@<TRIPOS>MOLECULE
*****
 23 26 0 0 0
SMALL
GASTEIGER

@<TRIPOS>ATOM
      1 O         138.8228  144.8940  164.0444 O.2     1  UNL1       -0.2666
      2 C         139.9790  144.1871  163.4014 C.2     1  UNL1        0.2837
      3 C         140.3165  144.4545  161.9645 C.ar    1  UNL1        0.1985
      4 N         139.6948  145.3547  160.9382 N.ar    1  UNL1       -0.2226
      5 C         140.4669  145.2041  159.6610 C.ar    1  UNL1        0.0993
      6 C         140.3113  145.8431  158.3129 C.ar    1  UNL1        0.0207
      7 C         141.2546  145.4889  157.2017 C.ar    1  UNL1        0.0021
      8 C         142.3534  144.4957  157.4386 C.ar    1  UNL1        0.0082
      9 C         142.5089  143.8567  158.7867 C.ar    1  UNL1        0.0518
     10 BR        143.6078  142.8635  159.0236 Br      1  UNL1       -0.0474
     11 C         141.5657  144.2109  159.8979 C.ar    1  UNL1        0.0853
     12 N         141.4727  143.7476  161.3215 N.ar    1  UNL1       -0.3056
     13 C         142.2915  142.7734  162.1155 C.3     1  UNL1        0.1291
     14 C         141.9541  142.5061  163.5524 C.3     1  UNL1        0.1186
     15 N         140.7979  143.2129  164.1954 N.am    1  UNL1       -0.2675
     16 C         140.4604  142.9456  165.6323 C.3     1  UNL1        0.1206
     17 C         139.7624  141.6742  166.0147 C.ar    1  UNL1       -0.0022
     18 C         138.8337  141.0072  165.0439 C.ar    1  UNL1       -0.0003
     19 C         138.1356  139.7357  165.4263 C.ar    1  UNL1        0.0294
     20 C         138.3664  139.1313  166.7797 C.ar    1  UNL1        0.1401
     21 F         137.6684  137.8599  167.1621 F       1  UNL1       -0.2042
     22 C         139.2952  139.7984  167.7505 C.ar    1  UNL1        0.0294
     23 C         139.9932  141.0698  167.3681 C.ar    1  UNL1       -0.0003
@<TRIPOS>BOND
     1     1     2    2
     2     2     3    1
     3     3     4   ar
     4     4     5   ar
     5     5     6   ar
     6     6     7   ar
     7     7     8   ar
     8     8     9   ar
     9     9    10    1
    10     9    11   ar
    11    11    12   ar
    12    12    13    1
    13    13    14    1
    14    14    15    1
    15    15    16    1
    16    16    17    1
    17    17    18   ar
    18    18    19   ar
    19    19    20   ar
    20    20    21    1
    21    20    22   ar
    22    22    23   ar
    23    15     2   am
    24    23    17   ar
    25    12     3   ar
    26    11     5   ar
@<TRIPOS>MOLECULE
*****
 23 26 0 0 0
SMALL
GASTEIGER

@<TRIPOS>ATOM
      1 O         137.4637  138.1908  166.6571 O.2     1  UNL1       -0.2666
      2 C         138.7052  138.9651  166.3266 C.2     1  UNL1        0.2837
      3 C         139.4248  139.7236  167.4022 C.ar    1  UNL1        0.1985
      4 N         139.1497  139.8922  168.8671 N.ar    1  UNL1       -0.2226
      5 C         140.2212  140.7706  169.4418 C.ar    1  UNL1        0.0993
      6 C         140.4645  141.2780  170.8323 C.ar    1  UNL1        0.0207
      7 C         141.6450  142.1597  171.1130 C.ar    1  UNL1        0.0021
      8 C         142.5823  142.5340  170.0033 C.ar    1  UNL1        0.0082
      9 C         142.3390  142.0266  168.6129 C.ar    1  UNL1        0.0518
     10 BR        143.2763  142.4009  167.5032 Br      1  UNL1       -0.0474
     11 C         141.1585  141.1449  168.3322 C.ar    1  UNL1        0.0853
     12 N         140.6663  140.4978  167.0716 N.ar    1  UNL1       -0.3056
     13 C         141.1882  140.5135  165.6654 C.3     1  UNL1        0.1291
     14 C         140.4686  139.7550  164.5898 C.3     1  UNL1        0.1186
     15 N         139.2271  138.9808  164.9204 N.am    1  UNL1       -0.2675
     16 C         138.5075  138.2223  163.8448 C.3     1  UNL1        0.1206
     17 C         138.5845  138.6860  162.4204 C.ar    1  UNL1       -0.0022
     18 C         139.4963  137.9904  161.4535 C.ar    1  UNL1       -0.0003
     19 C         139.5734  138.4540  160.0290 C.ar    1  UNL1        0.0294
     20 C         138.7386  139.6133  159.5714 C.ar    1  UNL1        0.1401
     21 F         138.8156  140.0770  158.1469 F       1  UNL1       -0.2042
     22 C         137.8268  140.3089  160.5383 C.ar    1  UNL1        0.0294
     23 C         137.7498  139.8452  161.9628 C.ar    1  UNL1       -0.0003
@<TRIPOS>BOND
     1     1     2    2
     2     2     3    1
     3     3     4   ar
     4     4     5   ar
     5     5     6   ar
     6     6     7   ar
     7     7     8   ar
     8     8     9   ar
     9     9    10    1
    10     9    11   ar
    11    11    12   ar
    12    12    13    1
    13    13    14    1
    14    14    15    1
    15    15    16    1
    16    16    17    1
    17    17    18   ar
    18    18    19   ar
    19    19    20   ar
    20    20    21    1
    21    20    22   ar
    22    22    23   ar
    23    15     2   am
    24    23    17   ar
    25    12     3   ar
    26    11     5   ar
@<TRIPOS>MOLECULE
*****
 23 26 0 0 0
SMALL
GASTEIGER

@<TRIPOS>ATOM
      1 O         138.1803  143.1954  160.9935 O.2     1  UNL1       -0.2666
      2 C         139.0266  143.4349  162.2086 C.2     1  UNL1        0.2837
      3 C         138.9612  142.4846  163.3673 C.ar    1  UNL1        0.1985
      4 N         138.1633  141.2355  163.5972 N.ar    1  UNL1       -0.2226
      5 C         138.5164  140.7030  164.9543 C.ar    1  UNL1        0.0993
      6 C         138.0439  139.4992  165.7143 C.ar    1  UNL1        0.0207
      7 C         138.5876  139.2155  167.0831 C.ar    1  UNL1        0.0021
      8 C         139.6038  140.1356  167.6921 C.ar    1  UNL1        0.0082
      9 C         140.0763  141.3394  166.9321 C.ar    1  UNL1        0.0518
     10 BR        141.0924  142.2595  167.5410 Br      1  UNL1       -0.0474
     11 C         139.5326  141.6231  165.5632 C.ar    1  UNL1        0.0853
     12 N         139.8075  142.7242  164.5824 N.ar    1  UNL1       -0.3056
     13 C         140.7191  143.9141  164.6387 C.3     1  UNL1        0.1291
     14 C         140.7844  144.8644  163.4800 C.3     1  UNL1        0.1186
     15 N         139.9382  144.6248  162.2649 N.am    1  UNL1       -0.2675
     16 C         140.0035  145.5751  161.1061 C.3     1  UNL1        0.1206
     17 C         140.7497  145.1915  159.8628 C.ar    1  UNL1       -0.0022
     18 C         140.3849  145.8132  158.5473 C.ar    1  UNL1       -0.0003
     19 C         141.1311  145.4296  157.3038 C.ar    1  UNL1        0.0294
     20 C         142.2421  144.4244  157.3759 C.ar    1  UNL1        0.1401
     21 F         142.9883  144.0408  156.1325 F       1  UNL1       -0.2042
     22 C         142.6069  143.8027  158.6915 C.ar    1  UNL1        0.0294
     23 C         141.8607  144.1863  159.9348 C.ar    1  UNL1       -0.0003
@<TRIPOS>BOND
     1     1     2    2
     2     2     3    1
     3     3     4   ar
     4     4     5   ar
     5     5     6   ar
     6     6     7   ar
     7     7     8   ar
     8     8     9   ar
     9     9    10    1
    10     9    11   ar
    11    11    12   ar
    12    12    13    1
    13    13    14    1
    14    14    15    1
    15    15    16    1
    16    16    17    1
    17    17    18   ar
    18    18    19   ar
    19    19    20   ar
    20    20    21    1
    21    20    22   ar
    22    22    23   ar
    23    15     2   am
    24    23    17   ar
    25    12     3   ar
    26    11     5   ar
@<TRIPOS>MOLECULE
*****
 23 26 0 0 0
SMALL
GASTEIGER

@<TRIPOS>ATOM
      1 O         142.1261  138.5089  166.1796 O.2     1  UNL1       -0.2666
      2 C         141.0784  138.7691  165.1382 C.2     1  UNL1        0.2837
      3 C         141.4169  138.6327  163.6833 C.ar    1  UNL1        0.1985
      4 N         142.6878  138.2598  162.9791 N.ar    1  UNL1       -0.2226
      5 C         142.4255  138.2895  161.5025 C.ar    1  UNL1        0.0993
      6 C         143.3063  138.0107  160.3209 C.ar    1  UNL1        0.0207
      7 C         142.7542  138.1233  158.9308 C.ar    1  UNL1        0.0021
      8 C         141.3212  138.5145  158.7223 C.ar    1  UNL1        0.0082
      9 C         140.4404  138.7933  159.9040 C.ar    1  UNL1        0.0518
     10 BR        139.0074  139.1845  159.6955 Br      1  UNL1       -0.0474
     11 C         140.9925  138.6807  161.2941 C.ar    1  UNL1        0.0853
     12 N         140.3692  138.8929  162.6418 N.ar    1  UNL1       -0.3056
     13 C         138.9829  139.2893  163.0554 C.3     1  UNL1        0.1291
     14 C         138.6444  139.4256  164.5103 C.3     1  UNL1        0.1186
     15 N         139.6921  139.1655  165.5517 N.am    1  UNL1       -0.2675
     16 C         139.3536  139.3018  167.0067 C.3     1  UNL1        0.1206
     17 C         139.7172  140.5546  167.7471 C.ar    1  UNL1       -0.0022
     18 C         140.2590  141.7370  166.9999 C.ar    1  UNL1       -0.0003
     19 C         140.6226  142.9899  167.7403 C.ar    1  UNL1        0.0294
     20 C         140.4444  143.0603  169.2281 C.ar    1  UNL1        0.1401
     21 F         140.8080  144.3131  169.9685 F       1  UNL1       -0.2042
     22 C         139.9026  141.8778  169.9753 C.ar    1  UNL1        0.0294
     23 C         139.5390  140.6250  169.2349 C.ar    1  UNL1       -0.0003
@<TRIPOS>BOND
     1     1     2    2
     2     2     3    1
     3     3     4   ar
     4     4     5   ar
     5     5     6   ar
     6     6     7   ar
     7     7     8   ar
     8     8     9   ar
     9     9    10    1
    10     9    11   ar
    11    11    12   ar
    12    12    13    1
    13    13    14    1
    14    14    15    1
    15    15    16    1
    16    16    17    1
    17    17    18   ar
    18    18    19   ar
    19    19    20   ar
    20    20    21    1
    21    20    22   ar
    22    22    23   ar
    23    15     2   am
    24    23    17   ar
    25    12     3   ar
    26    11     5   ar
@<TRIPOS>MOLECULE
*****
 23 26 0 0 0
SMALL
GASTEIGER

@<TRIPOS>ATOM
      1 O         142.1199  139.1559  163.6407 O.2     1  UNL1       -0.2666
      2 C         141.1387  139.2410  164.7720 C.2     1  UNL1        0.2837
      3 C         141.4734  140.0401  165.9966 C.ar    1  UNL1        0.1985
      4 N         142.6828  140.8446  166.3706 N.ar    1  UNL1       -0.2226
      5 C         142.4492  141.4269  167.7330 C.ar    1  UNL1        0.0993
      6 C         143.2943  142.3045  168.6079 C.ar    1  UNL1        0.0207
      7 C         142.7855  142.7375  169.9508 C.ar    1  UNL1        0.0021
      8 C         141.4316  142.2929  170.4190 C.ar    1  UNL1        0.0082
      9 C         140.5864  141.4152  169.5441 C.ar    1  UNL1        0.0518
     10 BR        139.2325  140.9706  170.0122 Br      1  UNL1       -0.0474
     11 C         141.0952  140.9822  168.2011 C.ar    1  UNL1        0.0853
     12 N         140.4922  140.1251  167.1280 N.ar    1  UNL1       -0.3056
     13 C         139.1763  139.4112  167.0348 C.3     1  UNL1        0.1291
     14 C         138.8416  138.6121  165.8102 C.3     1  UNL1        0.1186
     15 N         139.8228  138.5270  164.6789 N.am    1  UNL1       -0.2675
     16 C         139.4882  137.7279  163.4543 C.3     1  UNL1        0.1206
     17 C         139.0845  138.4267  162.1899 C.ar    1  UNL1       -0.0022
     18 C         137.9100  139.3597  162.1908 C.ar    1  UNL1       -0.0003
     19 C         137.5063  140.0585  160.9263 C.ar    1  UNL1        0.0294
     20 C         138.2772  139.8244  159.6611 C.ar    1  UNL1        0.1401
     21 F         137.8735  140.5232  158.3967 F       1  UNL1       -0.2042
     22 C         139.4518  138.8914  159.6602 C.ar    1  UNL1        0.0294
     23 C         139.8554  138.1926  160.9246 C.ar    1  UNL1       -0.0003
@<TRIPOS>BOND
     1     1     2    2
     2     2     3    1
     3     3     4   ar
     4     4     5   ar
     5     5     6   ar
     6     6     7   ar
     7     7     8   ar
     8     8     9   ar
     9     9    10    1
    10     9    11   ar
    11    11    12   ar
    12    12    13    1
    13    13    14    1
    14    14    15    1
    15    15    16    1
    16    16    17    1
    17    17    18   ar
    18    18    19   ar
    19    19    20   ar
    20    20    21    1
    21    20    22   ar
    22    22    23   ar
    23    15     2   am
    24    23    17   ar
    25    12     3   ar
    26    11     5   ar
@<TRIPOS>MOLECULE
*****
 23 26 0 0 0
SMALL
GASTEIGER

@<TRIPOS>ATOM
      1 O         138.5763  138.4480  165.9813 O.2     1  UNL1       -0.2666
      2 C         139.0028  139.7730  165.4225 C.2     1  UNL1        0.2837
      3 C         138.8057  140.0711  163.9657 C.ar    1  UNL1        0.1985
      4 N         138.2232  139.2615  162.8453 N.ar    1  UNL1       -0.2226
      5 C         138.2897  140.0861  161.5941 C.ar    1  UNL1        0.0993
      6 C         137.8630  139.8061  160.1836 C.ar    1  UNL1        0.0207
      7 C         138.0599  140.8455  159.1202 C.ar    1  UNL1        0.0021
      8 C         138.6834  142.1648  159.4672 C.ar    1  UNL1        0.0082
      9 C         139.1101  142.4449  160.8777 C.ar    1  UNL1        0.0518
     10 BR        139.7337  143.7642  161.2248 Br      1  UNL1       -0.0474
     11 C         138.9132  141.4055  161.9411 C.ar    1  UNL1        0.0853
     12 N         139.2321  141.3962  163.4068 N.ar    1  UNL1       -0.3056
     13 C         139.8557  142.4232  164.3048 C.3     1  UNL1        0.1291
     14 C         140.0529  142.1251  165.7616 C.3     1  UNL1        0.1186
     15 N         139.6264  140.8000  166.3205 N.am    1  UNL1       -0.2675
     16 C         139.8236  140.5019  167.7773 C.3     1  UNL1        0.1206
     17 C         140.7715  141.3320  168.5911 C.ar    1  UNL1       -0.0022
     18 C         142.2028  140.9082  168.7385 C.ar    1  UNL1       -0.0003
     19 C         143.1508  141.7384  169.5524 C.ar    1  UNL1        0.0294
     20 C         142.6674  142.9923  170.2188 C.ar    1  UNL1        0.1401
     21 F         143.6153  143.8224  171.0326 F       1  UNL1       -0.2042
     22 C         141.2360  143.4160  170.0714 C.ar    1  UNL1        0.0294
     23 C         140.2881  142.5859  169.2576 C.ar    1  UNL1       -0.0003
@<TRIPOS>BOND
     1     1     2    2
     2     2     3    1
     3     3     4   ar
     4     4     5   ar
     5     5     6   ar
     6     6     7   ar
     7     7     8   ar
     8     8     9   ar
     9     9    10    1
    10     9    11   ar
    11    11    12   ar
    12    12    13    1
    13    13    14    1
    14    14    15    1
    15    15    16    1
    16    16    17    1
    17    17    18   ar
    18    18    19   ar
    19    19    20   ar
    20    20    21    1
    21    20    22   ar
    22    22    23   ar
    23    15     2   am
    24    23    17   ar
    25    12     3   ar
    26    11     5   ar
@<TRIPOS>MOLECULE
*****
 23 26 0 0 0
SMALL
GASTEIGER

@<TRIPOS>ATOM
      1 O         140.2839  139.0089  163.7727 O.2     1  UNL1       -0.2666
      2 C         140.0368  140.4835  163.8927 C.2     1  UNL1        0.2837
      3 C         140.3424  141.3916  162.7385 C.ar    1  UNL1        0.1985
      4 N         140.8900  141.1234  161.3680 N.ar    1  UNL1       -0.2226
      5 C         140.9814  142.4323  160.6410 C.ar    1  UNL1        0.0993
      6 C         141.4483  142.7825  159.2593 C.ar    1  UNL1        0.0207
      7 C         141.4241  144.2098  158.7987 C.ar    1  UNL1        0.0021
      8 C         140.9330  145.2869  159.7199 C.ar    1  UNL1        0.0082
      9 C         140.4660  144.9367  161.1016 C.ar    1  UNL1        0.0518
     10 BR        139.9748  146.0138  162.0228 Br      1  UNL1       -0.0474
     11 C         140.4902  143.5094  161.5622 C.ar    1  UNL1        0.0853
     12 N         140.0953  142.8662  162.8585 N.ar    1  UNL1       -0.3056
     13 C         139.5427  143.4328  164.1326 C.3     1  UNL1        0.1291
     14 C         139.2371  142.5248  165.2868 C.3     1  UNL1        0.1186
     15 N         139.4842  141.0501  165.1668 N.am    1  UNL1       -0.2675
     16 C         139.1786  140.1421  166.3210 C.3     1  UNL1        0.1206
     17 C         140.1720  139.9829  167.4335 C.ar    1  UNL1       -0.0022
     18 C         141.6065  139.6762  167.1199 C.ar    1  UNL1       -0.0003
     19 C         142.6000  139.5170  168.2325 C.ar    1  UNL1        0.0294
     20 C         142.1590  139.6646  169.6586 C.ar    1  UNL1        0.1401
     21 F         143.1524  139.5054  170.7711 F       1  UNL1       -0.2042
     22 C         140.7245  139.9714  169.9722 C.ar    1  UNL1        0.0294
     23 C         139.7311  140.1305  168.8597 C.ar    1  UNL1       -0.0003
@<TRIPOS>BOND
     1     1     2    2
     2     2     3    1
     3     3     4   ar
     4     4     5   ar
     5     5     6   ar
     6     6     7   ar
     7     7     8   ar
     8     8     9   ar
     9     9    10    1
    10     9    11   ar
    11    11    12   ar
    12    12    13    1
    13    13    14    1
    14    14    15    1
    15    15    16    1
    16    16    17    1
    17    17    18   ar
    18    18    19   ar
    19    19    20   ar
    20    20    21    1
    21    20    22   ar
    22    22    23   ar
    23    15     2   am
    24    23    17   ar
    25    12     3   ar
    26    11     5   ar
@<TRIPOS>MOLECULE
*****
 23 26 0 0 0
SMALL
GASTEIGER

@<TRIPOS>ATOM
      1 O         144.6270  140.9435  164.5529 O.2     1  UNL1       -0.2666
      2 C         143.5504  141.9452  164.2569 C.2     1  UNL1        0.2837
      3 C         143.3337  142.4198  162.8505 C.ar    1  UNL1        0.1985
      4 N         144.0195  142.0814  161.5601 N.ar    1  UNL1       -0.2226
      5 C         143.3668  142.8740  160.4665 C.ar    1  UNL1        0.0993
      6 C         143.6235  142.9485  158.9906 C.ar    1  UNL1        0.0207
      7 C         142.7910  143.8512  158.1292 C.ar    1  UNL1        0.0021
      8 C         141.7018  144.6794  158.7438 C.ar    1  UNL1        0.0082
      9 C         141.4451  144.6049  160.2197 C.ar    1  UNL1        0.0518
     10 BR        140.3558  145.4331  160.8343 Br      1  UNL1       -0.0474
     11 C         142.2775  143.7022  161.0811 C.ar    1  UNL1        0.0853
     12 N         142.2571  143.4215  162.5545 N.ar    1  UNL1       -0.3056
     13 C         141.3973  143.9485  163.6648 C.3     1  UNL1        0.1291
     14 C         141.6140  143.4740  165.0711 C.3     1  UNL1        0.1186
     15 N         142.6906  142.4723  165.3672 N.am    1  UNL1       -0.2675
     16 C         142.9073  141.9977  166.7735 C.3     1  UNL1        0.1206
     17 C         141.7354  141.5907  167.6167 C.ar    1  UNL1       -0.0022
     18 C         141.3355  142.4246  168.7976 C.ar    1  UNL1       -0.0003
     19 C         140.1635  142.0176  169.6409 C.ar    1  UNL1        0.0294
     20 C         139.3916  140.7766  169.3031 C.ar    1  UNL1        0.1401
     21 F         138.2197  140.3695  170.1463 F       1  UNL1       -0.2042
     22 C         139.7916  139.9426  168.1222 C.ar    1  UNL1        0.0294
     23 C         140.9635  140.3496  167.2790 C.ar    1  UNL1       -0.0003
@<TRIPOS>BOND
     1     1     2    2
     2     2     3    1
     3     3     4   ar
     4     4     5   ar
     5     5     6   ar
     6     6     7   ar
     7     7     8   ar
     8     8     9   ar
     9     9    10    1
    10     9    11   ar
    11    11    12   ar
    12    12    13    1
    13    13    14    1
    14    14    15    1
    15    15    16    1
    16    16    17    1
    17    17    18   ar
    18    18    19   ar
    19    19    20   ar
    20    20    21    1
    21    20    22   ar
    22    22    23   ar
    23    15     2   am
    24    23    17   ar
    25    12     3   ar
    26    11     5   ar
@<TRIPOS>MOLECULE
*****
 23 26 0 0 0
SMALL
GASTEIGER

@<TRIPOS>ATOM
      1 O         144.9903  139.3740  163.9426 O.2     1  UNL1       -0.2666
      2 C         143.5331  139.0212  163.9903 C.2     1  UNL1        0.2837
      3 C         142.7092  139.3969  165.1861 C.ar    1  UNL1        0.1985
      4 N         143.0547  140.1122  166.4585 N.ar    1  UNL1       -0.2226
      5 C         141.8111  140.2015  167.2925 C.ar    1  UNL1        0.0993
      6 C         141.5493  140.7986  168.6433 C.ar    1  UNL1        0.0207
      7 C         140.1734  140.7356  169.2373 C.ar    1  UNL1        0.0021
      8 C         139.0593  140.0754  168.4804 C.ar    1  UNL1        0.0082
      9 C         139.3211  139.4783  167.1295 C.ar    1  UNL1        0.0518
     10 BR        138.2070  138.8181  166.3726 Br      1  UNL1       -0.0474
     11 C         140.6970  139.5413  166.5356 C.ar    1  UNL1        0.0853
     12 N         141.2521  139.0440  165.2338 N.ar    1  UNL1       -0.3056
     13 C         140.6189  138.3155  164.0856 C.3     1  UNL1        0.1291
     14 C         141.4428  137.9398  162.8898 C.3     1  UNL1        0.1186
     15 N         142.8999  138.2926  162.8421 N.am    1  UNL1       -0.2675
     16 C         143.7239  137.9170  161.6463 C.3     1  UNL1        0.1206
     17 C         143.4450  138.5489  160.3148 C.ar    1  UNL1       -0.0022
     18 C         142.7865  137.7505  159.2290 C.ar    1  UNL1       -0.0003
     19 C         142.5075  138.3824  157.8974 C.ar    1  UNL1        0.0294
     20 C         142.8871  139.8127  157.6518 C.ar    1  UNL1        0.1401
     21 F         142.6082  140.4446  156.3203 F       1  UNL1       -0.2042
     22 C         143.5456  140.6110  158.7377 C.ar    1  UNL1        0.0294
     23 C         143.8246  139.9791  160.0691 C.ar    1  UNL1       -0.0003
@<TRIPOS>BOND
     1     1     2    2
     2     2     3    1
     3     3     4   ar
     4     4     5   ar
     5     5     6   ar
     6     6     7   ar
     7     7     8   ar
     8     8     9   ar
     9     9    10    1
    10     9    11   ar
    11    11    12   ar
    12    12    13    1
    13    13    14    1
    14    14    15    1
    15    15    16    1
    16    16    17    1
    17    17    18   ar
    18    18    19   ar
    19    19    20   ar
    20    20    21    1
    21    20    22   ar
    22    22    23   ar
    23    15     2   am
    24    23    17   ar
    25    12     3   ar
    26    11     5   ar
