@<TRIPOS>MOLECULE
*****
 21 22 0 0 0
SMALL
GASTEIGER

@<TRIPOS>ATOM
      1 C         141.3843  139.3657  166.1636 C.ar    1  UNL1        0.0194
      2 C         140.0893  140.0181  166.5473 C.ar    1  UNL1        0.0047
      3 C         139.9800  140.7621  167.8451 C.ar    1  UNL1        0.0372
      4 C         141.1657  140.8537  168.7593 C.ar    1  UNL1        0.1468
      5 C         142.4607  140.2012  168.3757 C.ar    1  UNL1        0.0372
      6 C         142.5700  139.4572  167.0778 C.ar    1  UNL1        0.0047
      7 C         141.9892  138.0737  162.5538 C.ar    1  UNL1        0.1162
      8 N         142.0873  139.1503  163.5937 N.ar    1  UNL1       -0.2312
      9 C         141.4937  138.6216  164.8657 C.ar    1  UNL1        0.0995
     10 C         141.0285  137.2183  164.6120 C.ar    1  UNL1        0.0926
     11 N         141.3348  136.8797  163.1832 N.ar    1  UNL1       -0.3396
     12 H         141.1404  136.0240  162.7369 H       1  UNL1        0.1671
     13 C         141.0524  138.4121  160.6809 C.3     1  UNL1        0.0075
     14 C         142.4623  138.1736  161.1339 C.3     1  UNL1        0.0505
     15 C         143.8722  137.9352  161.5869 C.3     1  UNL1        0.0075
     16 C         142.9354  138.2735  159.7140 C.3     1  UNL1        0.0075
     17 O         141.0563  141.5978  170.0572 O.3     1  UNL1       -0.4045
     18 C         140.7376  143.0635  170.0569 C.3     1  UNL1        0.5753
     19 F         140.4190  144.5293  170.0566 F       1  UNL1       -0.1328
     20 F         142.1428  143.3689  169.6302 F       1  UNL1       -0.1328
     21 F         139.3324  142.7580  170.4836 F       1  UNL1       -0.1328
@<TRIPOS>BOND
     1    13    14    1
     2    14    15    1
     3    14    16    1
     4    14     7    1
     5     7     8   ar
     6     8     9   ar
     7     9     1    1
     8     1     2   ar
     9     2     3   ar
    10     3     4   ar
    11     4    17    1
    12    17    18    1
    13    18    19    1
    14    18    20    1
    15    18    21    1
    16     4     5   ar
    17     5     6   ar
    18     9    10   ar
    19    10    11   ar
    20    11     7   ar
    21     6     1   ar
    22    11    12    1
@<TRIPOS>MOLECULE
*****
 21 22 0 0 0
SMALL
GASTEIGER

@<TRIPOS>ATOM
      1 C         139.1722  141.8363  165.0609 C.ar    1  UNL1        0.0194
      2 C         138.5257  140.4977  165.2610 C.ar    1  UNL1        0.0047
      3 C         138.7540  139.7374  166.5337 C.ar    1  UNL1        0.0372
      4 C         139.6286  140.3157  167.6063 C.ar    1  UNL1        0.1468
      5 C         140.2751  141.6543  167.4062 C.ar    1  UNL1        0.0372
      6 C         140.0469  142.4147  166.1335 C.ar    1  UNL1        0.0047
      7 C         139.3306  143.8890  161.7704 C.ar    1  UNL1        0.1162
      8 N         140.0034  143.2413  162.9442 N.ar    1  UNL1       -0.2312
      9 C         138.9440  142.5967  163.7882 C.ar    1  UNL1        0.0995
     10 C         137.6164  142.8461  163.1360 C.ar    1  UNL1        0.0926
     11 N         137.8553  143.6447  161.8890 N.ar    1  UNL1       -0.3396
     12 H         137.1650  143.9542  161.2589 H       1  UNL1        0.1671
     13 C         140.0490  145.8714  161.5380 C.3     1  UNL1        0.0075
     14 C         140.0131  144.6477  160.6711 C.3     1  UNL1        0.0505
     15 C         139.9772  143.4241  159.8043 C.3     1  UNL1        0.0075
     16 C         140.6956  145.4065  159.5718 C.3     1  UNL1        0.0075
     17 O         139.8568  139.5553  168.8790 O.3     1  UNL1       -0.4045
     18 C         140.1765  140.2921  170.1459 C.3     1  UNL1        0.5753
     19 F         140.4962  141.0289  171.4128 F       1  UNL1       -0.1328
     20 F         138.8033  140.8956  170.1414 F       1  UNL1       -0.1328
     21 F         141.5497  139.6885  170.1504 F       1  UNL1       -0.1328
@<TRIPOS>BOND
     1    13    14    1
     2    14    15    1
     3    14    16    1
     4    14     7    1
     5     7     8   ar
     6     8     9   ar
     7     9     1    1
     8     1     2   ar
     9     2     3   ar
    10     3     4   ar
    11     4    17    1
    12    17    18    1
    13    18    19    1
    14    18    20    1
    15    18    21    1
    16     4     5   ar
    17     5     6   ar
    18     9    10   ar
    19    10    11   ar
    20    11     7   ar
    21     6     1   ar
    22    11    12    1
@<TRIPOS>MOLECULE
*****
 21 22 0 0 0
SMALL
GASTEIGER

@<TRIPOS>ATOM
      1 C         139.1699  141.8351  165.0731 C.ar    1  UNL1        0.0194
      2 C         140.0324  142.4286  166.1473 C.ar    1  UNL1        0.0047
      3 C         140.2653  141.6756  167.4234 C.ar    1  UNL1        0.0372
      4 C         139.6359  140.3291  167.6254 C.ar    1  UNL1        0.1468
      5 C         138.7735  139.7356  166.5512 C.ar    1  UNL1        0.0372
      6 C         138.5405  140.4886  165.2750 C.ar    1  UNL1        0.0047
      7 C         139.3147  143.8778  161.7758 C.ar    1  UNL1        0.1162
      8 N         139.9913  143.2426  162.9542 N.ar    1  UNL1       -0.2312
      9 C         138.9369  142.5881  163.7968 C.ar    1  UNL1        0.0995
     10 C         137.6087  142.8189  163.1392 C.ar    1  UNL1        0.0926
     11 N         137.8421  143.6159  161.8901 N.ar    1  UNL1       -0.3396
     12 H         137.1503  143.9147  161.2566 H       1  UNL1        0.1671
     13 C         140.0141  145.8666  161.5404 C.3     1  UNL1        0.0075
     14 C         139.9917  144.6409  160.6761 C.3     1  UNL1        0.0505
     15 C         139.9694  143.4152  159.8118 C.3     1  UNL1        0.0075
     16 C         140.6687  145.4040  159.5764 C.3     1  UNL1        0.0075
     17 O         139.8689  139.5761  168.9017 O.3     1  UNL1       -0.4045
     18 C         140.1706  140.3215  170.1679 C.3     1  UNL1        0.5753
     19 F         140.4723  141.0669  171.4342 F       1  UNL1       -0.1328
     20 F         141.5568  139.7485  170.1749 F       1  UNL1       -0.1328
     21 F         138.7844  140.8944  170.1608 F       1  UNL1       -0.1328
@<TRIPOS>BOND
     1    13    14    1
     2    14    15    1
     3    14    16    1
     4    14     7    1
     5     7     8   ar
     6     8     9   ar
     7     9     1    1
     8     1     2   ar
     9     2     3   ar
    10     3     4   ar
    11     4    17    1
    12    17    18    1
    13    18    19    1
    14    18    20    1
    15    18    21    1
    16     4     5   ar
    17     5     6   ar
    18     9    10   ar
    19    10    11   ar
    20    11     7   ar
    21     6     1   ar
    22    11    12    1
@<TRIPOS>MOLECULE
*****
 21 22 0 0 0
SMALL
GASTEIGER

@<TRIPOS>ATOM
      1 C         142.3120  142.9762  165.5058 C.ar    1  UNL1        0.0194
      2 C         140.8551  142.9125  165.8567 C.ar    1  UNL1        0.0047
      3 C         140.4300  142.4196  167.2081 C.ar    1  UNL1        0.0372
      4 C         141.4619  141.9904  168.2086 C.ar    1  UNL1        0.1468
      5 C         142.9188  142.0540  167.8577 C.ar    1  UNL1        0.0372
      6 C         143.3439  142.5470  166.5063 C.ar    1  UNL1        0.0047
      7 C         143.2141  143.5628  161.7765 C.ar    1  UNL1        0.1162
      8 N         142.7002  142.6831  162.8774 N.ar    1  UNL1       -0.2312
      9 C         142.7372  143.4692  164.1544 C.ar    1  UNL1        0.0995
     10 C         143.2740  144.8347  163.8427 C.ar    1  UNL1        0.0926
     11 N         143.5687  144.8926  162.3731 N.ar    1  UNL1       -0.3396
     12 H         143.9313  145.6673  161.8857 H       1  UNL1        0.1671
     13 C         144.6650  142.5233  160.6301 C.3     1  UNL1        0.0075
     14 C         143.3496  143.1799  160.3325 C.3     1  UNL1        0.0505
     15 C         142.0342  143.8365  160.0350 C.3     1  UNL1        0.0075
     16 C         143.4851  142.7971  158.8886 C.3     1  UNL1        0.0075
     17 O         141.0367  141.4974  169.5600 O.3     1  UNL1       -0.4045
     18 C         139.6582  140.9393  169.7553 C.3     1  UNL1        0.5753
     19 F         138.2796  140.3813  169.9505 F       1  UNL1       -0.1328
     20 F         139.2217  142.2341  170.3742 F       1  UNL1       -0.1328
     21 F         140.0947  139.6446  169.1364 F       1  UNL1       -0.1328
@<TRIPOS>BOND
     1    13    14    1
     2    14    15    1
     3    14    16    1
     4    14     7    1
     5     7     8   ar
     6     8     9   ar
     7     9     1    1
     8     1     2   ar
     9     2     3   ar
    10     3     4   ar
    11     4    17    1
    12    17    18    1
    13    18    19    1
    14    18    20    1
    15    18    21    1
    16     4     5   ar
    17     5     6   ar
    18     9    10   ar
    19    10    11   ar
    20    11     7   ar
    21     6     1   ar
    22    11    12    1
@<TRIPOS>MOLECULE
*****
 21 22 0 0 0
SMALL
GASTEIGER

@<TRIPOS>ATOM
      1 C         140.4252  139.4729  166.3979 C.ar    1  UNL1        0.0194
      2 C         141.9196  139.4272  166.5186 C.ar    1  UNL1        0.0047
      3 C         142.5834  139.8714  167.7882 C.ar    1  UNL1        0.0372
      4 C         141.7528  140.3613  168.9372 C.ar    1  UNL1        0.1468
      5 C         140.2584  140.4071  168.8165 C.ar    1  UNL1        0.0372
      6 C         139.5946  139.9629  167.5468 C.ar    1  UNL1        0.0047
      7 C         138.7713  139.0472  162.9123 C.ar    1  UNL1        0.1162
      8 N         139.4221  139.9035  163.9579 N.ar    1  UNL1       -0.2312
      9 C         139.7613  139.0287  165.1282 C.ar    1  UNL1        0.0995
     10 C         139.3202  137.6317  164.8060 C.ar    1  UNL1        0.0926
     11 N         138.7083  137.6431  163.4365 N.ar    1  UNL1       -0.3396
     12 H         138.3315  136.8656  162.9646 H       1  UNL1        0.1671
     13 C         137.6021  140.6829  162.2358 C.3     1  UNL1        0.0075
     14 C         138.2713  139.5131  161.5771 C.3     1  UNL1        0.0505
     15 C         138.9404  138.3434  160.9184 C.3     1  UNL1        0.0075
     16 C         137.7713  139.9790  160.2419 C.3     1  UNL1        0.0075
     17 O         142.4167  140.8056  170.2068 O.3     1  UNL1       -0.4045
     18 C         142.6900  142.2618  170.4405 C.3     1  UNL1        0.5753
     19 F         142.9633  143.7181  170.6742 F       1  UNL1       -0.1328
     20 F         143.9901  142.1362  169.7031 F       1  UNL1       -0.1328
     21 F         141.3898  142.3874  171.1780 F       1  UNL1       -0.1328
@<TRIPOS>BOND
     1    13    14    1
     2    14    15    1
     3    14    16    1
     4    14     7    1
     5     7     8   ar
     6     8     9   ar
     7     9     1    1
     8     1     2   ar
     9     2     3   ar
    10     3     4   ar
    11     4    17    1
    12    17    18    1
    13    18    19    1
    14    18    20    1
    15    18    21    1
    16     4     5   ar
    17     5     6   ar
    18     9    10   ar
    19    10    11   ar
    20    11     7   ar
    21     6     1   ar
    22    11    12    1
@<TRIPOS>MOLECULE
*****
 21 22 0 0 0
SMALL
GASTEIGER

@<TRIPOS>ATOM
      1 C         139.6043  140.0840  166.2491 C.ar    1  UNL1        0.0194
      2 C         140.3187  141.4026  166.2192 C.ar    1  UNL1        0.0047
      3 C         140.5598  142.1540  167.4948 C.ar    1  UNL1        0.0372
      4 C         140.0867  141.5867  168.8003 C.ar    1  UNL1        0.1468
      5 C         139.3724  140.2681  168.8302 C.ar    1  UNL1        0.0372
      6 C         139.1312  139.5167  167.5546 C.ar    1  UNL1        0.0047
      7 C         139.1544  138.7933  162.6162 C.ar    1  UNL1        0.1162
      8 N         139.4841  139.8893  163.5858 N.ar    1  UNL1       -0.2312
      9 C         139.3631  139.3325  164.9734 C.ar    1  UNL1        0.0995
     10 C         138.9586  137.8925  164.8614 C.ar    1  UNL1        0.0926
     11 N         138.8296  137.5592  163.4046 N.ar    1  UNL1       -0.3396
     12 H         138.5762  136.6841  163.0314 H       1  UNL1        0.1671
     13 C         140.5559  138.3896  161.0759 C.3     1  UNL1        0.0075
     14 C         139.1501  138.9108  161.1208 C.3     1  UNL1        0.0505
     15 C         137.7444  139.4321  161.1658 C.3     1  UNL1        0.0075
     16 C         139.1459  139.0283  159.6255 C.3     1  UNL1        0.0075
     17 O         140.3279  142.3381  170.0759 O.3     1  UNL1       -0.4045
     18 C         141.6572  142.9870  170.3243 C.3     1  UNL1        0.5753
     19 F         142.9867  143.6359  170.5726 F       1  UNL1       -0.1328
     20 F         142.2593  141.6436  170.6116 F       1  UNL1       -0.1328
     21 F         141.0551  144.3305  170.0369 F       1  UNL1       -0.1328
@<TRIPOS>BOND
     1    13    14    1
     2    14    15    1
     3    14    16    1
     4    14     7    1
     5     7     8   ar
     6     8     9   ar
     7     9     1    1
     8     1     2   ar
     9     2     3   ar
    10     3     4   ar
    11     4    17    1
    12    17    18    1
    13    18    19    1
    14    18    20    1
    15    18    21    1
    16     4     5   ar
    17     5     6   ar
    18     9    10   ar
    19    10    11   ar
    20    11     7   ar
    21     6     1   ar
    22    11    12    1
@<TRIPOS>MOLECULE
*****
 21 22 0 0 0
SMALL
GASTEIGER

@<TRIPOS>ATOM
      1 C         143.0999  140.2389  166.1854 C.ar    1  UNL1        0.0194
      2 C         143.0013  141.7115  166.4534 C.ar    1  UNL1        0.0047
      3 C         142.6190  142.2012  167.8187 C.ar    1  UNL1        0.0372
      4 C         142.3354  141.2185  168.9159 C.ar    1  UNL1        0.1468
      5 C         142.4341  139.7460  168.6478 C.ar    1  UNL1        0.0372
      6 C         142.8164  139.2562  167.2826 C.ar    1  UNL1        0.0047
      7 C         143.3452  138.9284  162.5401 C.ar    1  UNL1        0.1162
      8 N         142.5335  139.3530  163.7278 N.ar    1  UNL1       -0.2312
      9 C         143.4822  139.7491  164.8201 C.ar    1  UNL1        0.0995
     10 C         144.8804  139.5693  164.3074 C.ar    1  UNL1        0.0926
     11 N         144.7957  139.0621  162.8983 N.ar    1  UNL1       -0.3396
     12 H         145.5583  138.8536  162.3115 H       1  UNL1        0.1671
     13 C         143.9522  139.1037  160.5151 C.3     1  UNL1        0.0075
     14 C         142.8019  138.4536  161.2251 C.3     1  UNL1        0.0505
     15 C         141.6516  137.8035  161.9351 C.3     1  UNL1        0.0075
     16 C         142.2586  137.9788  159.9100 C.3     1  UNL1        0.0075
     17 O         141.9531  141.7084  170.2812 O.3     1  UNL1       -0.4045
     18 C         140.6318  142.3864  170.4919 C.3     1  UNL1        0.5753
     19 F         139.3105  143.0646  170.7027 F       1  UNL1       -0.1328
     20 F         141.2784  143.7194  170.2572 F       1  UNL1       -0.1328
     21 F         139.9852  141.0535  170.7266 F       1  UNL1       -0.1328
@<TRIPOS>BOND
     1    13    14    1
     2    14    15    1
     3    14    16    1
     4    14     7    1
     5     7     8   ar
     6     8     9   ar
     7     9     1    1
     8     1     2   ar
     9     2     3   ar
    10     3     4   ar
    11     4    17    1
    12    17    18    1
    13    18    19    1
    14    18    20    1
    15    18    21    1
    16     4     5   ar
    17     5     6   ar
    18     9    10   ar
    19    10    11   ar
    20    11     7   ar
    21     6     1   ar
    22    11    12    1
@<TRIPOS>MOLECULE
*****
 21 22 0 0 0
SMALL
GASTEIGER

@<TRIPOS>ATOM
      1 C         139.3317  139.1648  164.9365 C.ar    1  UNL1        0.0194
      2 C         138.1917  138.9601  165.8896 C.ar    1  UNL1        0.0047
      3 C         138.3888  139.1999  167.3571 C.ar    1  UNL1        0.0372
      4 C         139.7259  139.6443  167.8715 C.ar    1  UNL1        0.1468
      5 C         140.8659  139.8489  166.9185 C.ar    1  UNL1        0.0372
      6 C         140.6688  139.6092  165.4510 C.ar    1  UNL1        0.0047
      7 C         138.9483  139.2847  161.0759 C.ar    1  UNL1        0.1162
      8 N         139.2079  139.9629  162.3884 N.ar    1  UNL1       -0.2312
      9 C         139.1347  138.9250  163.4689 C.ar    1  UNL1        0.0995
     10 C         138.8298  137.6054  162.8242 C.ar    1  UNL1        0.0926
     11 N         138.7146  137.8277  161.3453 N.ar    1  UNL1       -0.3396
     12 H         138.5199  137.1383  160.6700 H       1  UNL1        0.1671
     13 C         139.6557  138.7761  159.1418 C.3     1  UNL1        0.0075
     14 C         138.9262  139.9472  159.7303 C.3     1  UNL1        0.0505
     15 C         138.1967  141.1182  160.3188 C.3     1  UNL1        0.0075
     16 C         138.9041  140.6096  158.3847 C.3     1  UNL1        0.0075
     17 O         139.9230  139.8840  169.3391 O.3     1  UNL1       -0.4045
     18 C         139.5179  141.1945  169.9460 C.3     1  UNL1        0.5753
     19 F         139.1128  142.5052  170.5529 F       1  UNL1       -0.1328
     20 F         140.8887  141.7418  169.6793 F       1  UNL1       -0.1328
     21 F         138.1470  140.6473  170.2128 F       1  UNL1       -0.1328
@<TRIPOS>BOND
     1    13    14    1
     2    14    15    1
     3    14    16    1
     4    14     7    1
     5     7     8   ar
     6     8     9   ar
     7     9     1    1
     8     1     2   ar
     9     2     3   ar
    10     3     4   ar
    11     4    17    1
    12    17    18    1
    13    18    19    1
    14    18    20    1
    15    18    21    1
    16     4     5   ar
    17     5     6   ar
    18     9    10   ar
    19    10    11   ar
    20    11     7   ar
    21     6     1   ar
    22    11    12    1
@<TRIPOS>MOLECULE
*****
 21 22 0 0 0
SMALL
GASTEIGER

@<TRIPOS>ATOM
      1 C         141.7091  142.8811  165.0738 C.ar    1  UNL1        0.0194
      2 C         142.8528  142.5782  165.9957 C.ar    1  UNL1        0.0047
      3 C         142.6034  141.8628  167.2902 C.ar    1  UNL1        0.0372
      4 C         141.2103  141.4503  167.6629 C.ar    1  UNL1        0.1468
      5 C         140.0665  141.7532  166.7409 C.ar    1  UNL1        0.0372
      6 C         140.3159  142.4686  165.4464 C.ar    1  UNL1        0.0047
      7 C         141.6401  144.5481  161.5692 C.ar    1  UNL1        0.1162
      8 N         140.9692  143.7753  162.6658 N.ar    1  UNL1       -0.2312
      9 C         141.9584  143.5966  163.7791 C.ar    1  UNL1        0.0995
     10 C         143.2408  144.2589  163.3706 C.ar    1  UNL1        0.0926
     11 N         143.0441  144.8470  162.0048 N.ar    1  UNL1       -0.3396
     12 H         143.7181  145.3421  161.4854 H       1  UNL1        0.1671
     13 C         141.9262  144.0059  159.5384 C.3     1  UNL1        0.0075
     14 C         141.0167  144.9512  160.2658 C.3     1  UNL1        0.0505
     15 C         140.1072  145.8965  160.9932 C.3     1  UNL1        0.0075
     16 C         140.3932  145.3543  158.9624 C.3     1  UNL1        0.0075
     17 O         140.9609  140.7348  168.9575 O.3     1  UNL1       -0.4045
     18 C         139.5863  140.7278  169.5579 C.3     1  UNL1        0.5753
     19 F         138.2117  140.7208  170.1583 F       1  UNL1       -0.1328
     20 F         139.2433  139.5059  168.7584 F       1  UNL1       -0.1328
     21 F         139.9293  141.9497  170.3574 F       1  UNL1       -0.1328
@<TRIPOS>BOND
     1    13    14    1
     2    14    15    1
     3    14    16    1
     4    14     7    1
     5     7     8   ar
     6     8     9   ar
     7     9     1    1
     8     1     2   ar
     9     2     3   ar
    10     3     4   ar
    11     4    17    1
    12    17    18    1
    13    18    19    1
    14    18    20    1
    15    18    21    1
    16     4     5   ar
    17     5     6   ar
    18     9    10   ar
    19    10    11   ar
    20    11     7   ar
    21     6     1   ar
    22    11    12    1
