@<TRIPOS>MOLECULE
*****
 28 31 0 0 0
SMALL
GASTEIGER

@<TRIPOS>ATOM
      1 C         140.2667  142.0169  167.0451 C.ar    1  UNL1        0.0873
      2 C         140.0766  142.9469  165.8837 C.ar    1  UNL1        0.0400
      3 C         139.2032  142.5416  164.7334 C.ar    1  UNL1        0.1032
      4 N         139.0130  143.4717  163.5721 N.ar    1  UNL1       -0.2405
      5 C         138.1397  143.0664  162.4219 C.ar    1  UNL1        0.1195
      6 C         137.4565  141.7310  162.4331 C.ar    1  UNL1        0.1196
      7 N         137.6466  140.8010  163.5945 N.ar    1  UNL1       -0.2379
      8 C         138.5200  141.2063  164.7446 C.ar    1  UNL1        0.1302
      9 C         138.7102  140.2763  165.9061 C.ar    1  UNL1        0.1477
     10 N         139.5835  140.6816  167.0563 N.ar    1  UNL1       -0.2292
     11 C         144.4709  142.6654  170.1733 C.3     1  UNL1        0.1538
     12 N         143.0726  142.7202  169.6332 N.ar    1  UNL1       -0.2473
     13 C         142.6056  142.1336  168.3340 C.ar    1  UNL1        0.0982
     14 C         141.1401  142.4222  168.1953 C.ar    1  UNL1        0.0573
     15 C         140.7014  143.1871  169.4087 C.ar    1  UNL1        0.1231
     16 N         141.8957  143.3714  170.2974 N.ar    1  UNL1       -0.1675
     17 N         138.0270  138.9409  165.9173 N.pl3   1  UNL1       -0.3168
     18 H         137.0822  138.8736  166.1860 H       1  UNL1        0.1482
     19 C         138.7832  137.7082  165.5192 C.3     1  UNL1        0.0897
     20 C         139.7584  137.7615  164.3807 C.3     1  UNL1        0.0408
     21 C         139.2707  137.6285  162.9685 C.3     1  UNL1        0.0705
     22 N         140.2459  137.6819  161.8300 N.3     1  UNL1       -0.2929
     23 C         141.7089  137.8682  162.1038 C.3     1  UNL1        0.1359
     24 C         142.1967  138.0012  163.5161 C.3     1  UNL1        0.2782
     25 F         143.1364  138.1734  164.6724 F       1  UNL1       -0.2028
     26 F         143.4982  138.1143  162.7792 F       1  UNL1       -0.2028
     27 C         141.2214  137.9478  164.6545 C.3     1  UNL1        0.0711
     28 H         139.9575  138.4556  161.2313 H       1  UNL1        0.1234
@<TRIPOS>BOND
     1    11    12    1
     2    12    13   ar
     3    13    14   ar
     4    14     1    1
     5     1     2   ar
     6     2     3   ar
     7     3     4   ar
     8     4     5   ar
     9     5     6   ar
    10     6     7   ar
    11     7     8   ar
    12     8     9   ar
    13     9    17    1
    14    17    19    1
    15    19    20    1
    16    20    21    1
    17    21    22    1
    18    22    23    1
    19    23    24    1
    20    24    25    1
    21    24    26    1
    22    24    27    1
    23     9    10   ar
    24    14    15   ar
    25    15    16   ar
    26    16    12   ar
    27    10     1   ar
    28     8     3   ar
    29    27    20    1
    30    17    18    1
    31    22    28    1
@<TRIPOS>MOLECULE
*****
 28 31 0 0 0
SMALL
GASTEIGER

@<TRIPOS>ATOM
      1 C         139.2867  142.2856  165.0398 C.ar    1  UNL1        0.0873
      2 C         140.2117  142.6909  166.1489 C.ar    1  UNL1        0.0400
      3 C         140.3883  141.7988  167.3419 C.ar    1  UNL1        0.1032
      4 N         141.3133  142.2041  168.4510 N.ar    1  UNL1       -0.2405
      5 C         141.4899  141.3121  169.6439 C.ar    1  UNL1        0.1195
      6 C         140.7415  140.0148  169.7277 C.ar    1  UNL1        0.1196
      7 N         139.8166  139.6095  168.6186 N.ar    1  UNL1       -0.2379
      8 C         139.6400  140.5015  167.4257 C.ar    1  UNL1        0.1302
      9 C         138.7150  140.0963  166.3165 C.ar    1  UNL1        0.1477
     10 N         138.5384  140.9883  165.1236 N.ar    1  UNL1       -0.2292
     11 C         139.7716  146.3253  161.6742 C.3     1  UNL1        0.1538
     12 N         139.3330  145.0345  162.2998 N.ar    1  UNL1       -0.2473
     13 C         139.8067  144.4853  163.6129 C.ar    1  UNL1        0.0982
     14 C         139.1101  143.1776  163.8468 C.ar    1  UNL1        0.0573
     15 C         138.2058  142.9186  162.6784 C.ar    1  UNL1        0.1231
     16 N         138.3436  144.0661  161.7223 N.ar    1  UNL1       -0.1675
     17 N         137.9666  138.7990  166.4003 N.pl3   1  UNL1       -0.3168
     18 H         137.0913  138.7638  166.8494 H       1  UNL1        0.1482
     19 C         138.5520  137.5553  165.7998 C.3     1  UNL1        0.0897
     20 C         139.4829  137.6548  164.6278 C.3     1  UNL1        0.0408
     21 C         138.9381  137.6066  163.2311 C.3     1  UNL1        0.0705
     22 N         139.8690  137.7061  162.0591 N.3     1  UNL1       -0.2929
     23 C         141.3447  137.8537  162.2838 C.3     1  UNL1        0.1359
     24 C         141.8895  137.9019  163.6806 C.3     1  UNL1        0.2782
     25 F         142.8767  137.9960  164.8061 F       1  UNL1       -0.2028
     26 F         143.1632  138.0340  162.8995 F       1  UNL1       -0.2028
     27 C         140.9586  137.8025  164.8526 C.3     1  UNL1        0.0711
     28 H         139.5716  138.5158  161.5147 H       1  UNL1        0.1234
@<TRIPOS>BOND
     1    11    12    1
     2    12    13   ar
     3    13    14   ar
     4    14     1    1
     5     1     2   ar
     6     2     3   ar
     7     3     4   ar
     8     4     5   ar
     9     5     6   ar
    10     6     7   ar
    11     7     8   ar
    12     8     9   ar
    13     9    17    1
    14    17    19    1
    15    19    20    1
    16    20    21    1
    17    21    22    1
    18    22    23    1
    19    23    24    1
    20    24    25    1
    21    24    26    1
    22    24    27    1
    23     9    10   ar
    24    14    15   ar
    25    15    16   ar
    26    16    12   ar
    27    10     1   ar
    28     8     3   ar
    29    27    20    1
    30    17    18    1
    31    22    28    1
@<TRIPOS>MOLECULE
*****
 28 31 0 0 0
SMALL
GASTEIGER

@<TRIPOS>ATOM
      1 C         140.7305  142.5889  165.9373 C.ar    1  UNL1        0.0873
      2 C         140.4746  142.7812  167.4027 C.ar    1  UNL1        0.0400
      3 C         141.1915  141.9288  168.4075 C.ar    1  UNL1        0.1032
      4 N         140.9357  142.1212  169.8729 N.ar    1  UNL1       -0.2405
      5 C         141.6525  141.2688  170.8776 C.ar    1  UNL1        0.1195
      6 C         142.6253  140.2240  170.4169 C.ar    1  UNL1        0.1196
      7 N         142.8811  140.0317  168.9515 N.ar    1  UNL1       -0.2379
      8 C         142.1643  140.8841  167.9468 C.ar    1  UNL1        0.1302
      9 C         142.4201  140.6917  166.4813 C.ar    1  UNL1        0.1477
     10 N         141.7033  141.5441  165.4766 N.ar    1  UNL1       -0.2292
     11 C         139.7598  146.0398  162.0604 C.3     1  UNL1        0.1538
     12 N         139.5675  145.0275  163.1505 N.ar    1  UNL1       -0.2473
     13 C         140.6553  144.3864  163.9604 C.ar    1  UNL1        0.0982
     14 C         140.0136  143.4413  164.9325 C.ar    1  UNL1        0.0573
     15 C         138.5294  143.4981  164.7234 C.ar    1  UNL1        0.1231
     16 N         138.2536  144.4785  163.6221 N.ar    1  UNL1       -0.1675
     17 N         143.3929  139.6469  166.0206 N.pl3   1  UNL1       -0.3168
     18 H         144.3532  139.8574  165.9682 H       1  UNL1        0.1482
     19 C         142.9025  138.2815  165.6398 C.3     1  UNL1        0.0897
     20 C         141.9571  138.1187  164.4867 C.3     1  UNL1        0.0408
     21 C         142.4549  138.2774  163.0806 C.3     1  UNL1        0.0705
     22 N         141.5095  138.1145  161.9275 N.3     1  UNL1       -0.2929
     23 C         140.0664  137.7931  162.1804 C.3     1  UNL1        0.1359
     24 C         139.5685  137.6344  163.5865 C.3     1  UNL1        0.2782
     25 F         138.6292  137.3896  164.7300 F       1  UNL1       -0.2028
     26 F         138.2970  137.3866  162.8305 F       1  UNL1       -0.2028
     27 C         140.5139  137.7972  164.7396 C.3     1  UNL1        0.0711
     28 H         141.8810  137.3634  161.3460 H       1  UNL1        0.1234
@<TRIPOS>BOND
     1    11    12    1
     2    12    13   ar
     3    13    14   ar
     4    14     1    1
     5     1     2   ar
     6     2     3   ar
     7     3     4   ar
     8     4     5   ar
     9     5     6   ar
    10     6     7   ar
    11     7     8   ar
    12     8     9   ar
    13     9    17    1
    14    17    19    1
    15    19    20    1
    16    20    21    1
    17    21    22    1
    18    22    23    1
    19    23    24    1
    20    24    25    1
    21    24    26    1
    22    24    27    1
    23     9    10   ar
    24    14    15   ar
    25    15    16   ar
    26    16    12   ar
    27    10     1   ar
    28     8     3   ar
    29    27    20    1
    30    17    18    1
    31    22    28    1
@<TRIPOS>MOLECULE
*****
 28 31 0 0 0
SMALL
GASTEIGER

@<TRIPOS>ATOM
      1 C         139.5824  140.4745  166.4096 C.ar    1  UNL1        0.0873
      2 C         139.2653  139.3195  165.5066 C.ar    1  UNL1        0.0400
      3 C         138.7571  139.5706  164.1178 C.ar    1  UNL1        0.1032
      4 N         138.4400  138.4156  163.2149 N.ar    1  UNL1       -0.2405
      5 C         137.9318  138.6668  161.8262 C.ar    1  UNL1        0.1195
      6 C         137.7407  140.0731  161.3404 C.ar    1  UNL1        0.1196
      7 N         138.0578  141.2281  162.2433 N.ar    1  UNL1       -0.2379
      8 C         138.5660  140.9769  163.6320 C.ar    1  UNL1        0.1302
      9 C         138.8831  142.1319  164.5350 C.ar    1  UNL1        0.1477
     10 N         139.3913  141.8807  165.9238 N.ar    1  UNL1       -0.2292
     11 C         142.8191  139.7281  170.5142 C.3     1  UNL1        0.1538
     12 N         141.5784  139.8802  169.6850 N.ar    1  UNL1       -0.2473
     13 C         141.5311  140.1460  168.2094 C.ar    1  UNL1        0.0982
     14 C         140.0906  140.2233  167.7984 C.ar    1  UNL1        0.0573
     15 C         139.2476  140.0054  169.0198 C.ar    1  UNL1        0.1231
     16 N         140.1671  139.7934  170.1858 N.ar    1  UNL1       -0.1675
     17 N         138.6921  143.5382  164.0492 N.pl3   1  UNL1       -0.3168
     18 H         137.8874  143.7760  163.5343 H       1  UNL1        0.1482
     19 C         139.7270  144.5820  164.3480 C.3     1  UNL1        0.0897
     20 C         141.1155  144.4404  163.7984 C.3     1  UNL1        0.0408
     21 C         141.4632  145.0501  162.4728 C.3     1  UNL1        0.0705
     22 N         142.8517  144.9084  161.9232 N.3     1  UNL1       -0.2929
     23 C         143.8925  144.1571  162.6992 C.3     1  UNL1        0.1359
     24 C         143.5448  143.5474  164.0249 C.3     1  UNL1        0.2782
     25 F         143.6977  142.7981  165.3154 F       1  UNL1       -0.2028
     26 F         144.9863  143.1456  163.9235 F       1  UNL1       -0.2028
     27 C         142.1563  143.6890  164.5745 C.3     1  UNL1        0.0711
     28 H         143.2117  145.8529  161.7856 H       1  UNL1        0.1234
@<TRIPOS>BOND
     1    11    12    1
     2    12    13   ar
     3    13    14   ar
     4    14     1    1
     5     1     2   ar
     6     2     3   ar
     7     3     4   ar
     8     4     5   ar
     9     5     6   ar
    10     6     7   ar
    11     7     8   ar
    12     8     9   ar
    13     9    17    1
    14    17    19    1
    15    19    20    1
    16    20    21    1
    17    21    22    1
    18    22    23    1
    19    23    24    1
    20    24    25    1
    21    24    26    1
    22    24    27    1
    23     9    10   ar
    24    14    15   ar
    25    15    16   ar
    26    16    12   ar
    27    10     1   ar
    28     8     3   ar
    29    27    20    1
    30    17    18    1
    31    22    28    1
@<TRIPOS>MOLECULE
*****
 28 31 0 0 0
SMALL
GASTEIGER

@<TRIPOS>ATOM
      1 C         142.7742  141.3488  165.1928 C.ar    1  UNL1        0.0873
      2 C         142.9406  142.0712  166.4968 C.ar    1  UNL1        0.0400
      3 C         141.9603  141.8456  167.6096 C.ar    1  UNL1        0.1032
      4 N         142.1266  142.5680  168.9136 N.ar    1  UNL1       -0.2405
      5 C         141.1464  142.3425  170.0263 C.ar    1  UNL1        0.1195
      6 C         139.9997  141.3946  169.8350 C.ar    1  UNL1        0.1196
      7 N         139.8333  140.6722  168.5310 N.ar    1  UNL1       -0.2379
      8 C         140.8136  140.8977  167.4183 C.ar    1  UNL1        0.1302
      9 C         140.6472  140.1753  166.1142 C.ar    1  UNL1        0.1477
     10 N         141.6275  140.4008  165.0015 N.ar    1  UNL1       -0.2292
     11 C         144.8386  142.5819  160.4919 C.3     1  UNL1        0.1538
     12 N         144.7034  142.1411  161.9192 N.ar    1  UNL1       -0.2473
     13 C         143.4252  142.0624  162.7005 C.ar    1  UNL1        0.0982
     14 C         143.7545  141.5743  164.0801 C.ar    1  UNL1        0.0573
     15 C         145.2361  141.3512  164.1515 C.ar    1  UNL1        0.1231
     16 N         145.8225  141.7015  162.8161 N.ar    1  UNL1       -0.1675
     17 N         139.5006  139.2274  165.9230 N.pl3   1  UNL1       -0.3168
     18 H         139.6260  138.2642  166.0839 H       1  UNL1        0.1482
     19 C         138.1628  139.7468  165.4864 C.3     1  UNL1        0.0897
     20 C         138.0707  140.7173  164.3464 C.3     1  UNL1        0.0408
     21 C         138.1710  140.2254  162.9329 C.3     1  UNL1        0.0705
     22 N         138.0789  141.1958  161.7928 N.3     1  UNL1       -0.2929
     23 C         137.8865  142.6581  162.0662 C.3     1  UNL1        0.1359
     24 C         137.7862  143.1500  163.4797 C.3     1  UNL1        0.2782
     25 F         137.6358  144.0925  164.6369 F       1  UNL1       -0.2028
     26 F         137.6418  144.4477  162.7415 F       1  UNL1       -0.2028
     27 C         137.8783  142.1796  164.6198 C.3     1  UNL1        0.0711
     28 H         137.2923  140.8982  161.2156 H       1  UNL1        0.1234
@<TRIPOS>BOND
     1    11    12    1
     2    12    13   ar
     3    13    14   ar
     4    14     1    1
     5     1     2   ar
     6     2     3   ar
     7     3     4   ar
     8     4     5   ar
     9     5     6   ar
    10     6     7   ar
    11     7     8   ar
    12     8     9   ar
    13     9    17    1
    14    17    19    1
    15    19    20    1
    16    20    21    1
    17    21    22    1
    18    22    23    1
    19    23    24    1
    20    24    25    1
    21    24    26    1
    22    24    27    1
    23     9    10   ar
    24    14    15   ar
    25    15    16   ar
    26    16    12   ar
    27    10     1   ar
    28     8     3   ar
    29    27    20    1
    30    17    18    1
    31    22    28    1
@<TRIPOS>MOLECULE
*****
 28 31 0 0 0
SMALL
GASTEIGER

@<TRIPOS>ATOM
      1 C         139.2844  139.3962  164.7522 C.ar    1  UNL1        0.0873
      2 C         140.4884  138.6437  164.2684 C.ar    1  UNL1        0.0400
      3 C         140.8263  138.6290  162.8069 C.ar    1  UNL1        0.1032
      4 N         142.0303  137.8765  162.3231 N.ar    1  UNL1       -0.2405
      5 C         142.3681  137.8618  160.8617 C.ar    1  UNL1        0.1195
      6 C         141.5020  138.5996  159.8842 C.ar    1  UNL1        0.1196
      7 N         140.2980  139.3521  160.3681 N.ar    1  UNL1       -0.2379
      8 C         139.9602  139.3668  161.8294 C.ar    1  UNL1        0.1302
      9 C         138.7561  140.1193  162.3134 C.ar    1  UNL1        0.1477
     10 N         138.4183  140.1340  163.7747 N.ar    1  UNL1       -0.2292
     11 C         139.4247  140.4280  169.9288 C.3     1  UNL1        0.1538
     12 N         139.0110  139.8852  168.5930 N.ar    1  UNL1       -0.2473
     13 C         139.6936  140.1503  167.2838 C.ar    1  UNL1        0.0982
     14 C         138.9465  139.4110  166.2136 C.ar    1  UNL1        0.0573
     15 C         137.8023  138.6890  166.8613 C.ar    1  UNL1        0.1231
     16 N         137.8421  138.9821  168.3319 N.ar    1  UNL1       -0.1675
     17 N         137.8900  140.8571  161.3359 N.pl3   1  UNL1       -0.3168
     18 H         137.1874  140.3771  160.8408 H       1  UNL1        0.1482
     19 C         138.0945  142.3262  161.1126 C.3     1  UNL1        0.0897
     20 C         138.7264  143.1666  162.1824 C.3     1  UNL1        0.0408
     21 C         140.1685  143.5638  162.0701 C.3     1  UNL1        0.0705
     22 N         140.8004  144.4041  163.1399 N.3     1  UNL1       -0.2929
     23 C         139.9904  144.8473  164.3219 C.3     1  UNL1        0.1359
     24 C         138.5482  144.4501  164.4343 C.3     1  UNL1        0.2782
     25 F         137.1579  144.3303  164.9844 F       1  UNL1       -0.2028
     26 F         138.6973  145.2488  165.6951 F       1  UNL1       -0.2028
     27 C         137.9162  143.6097  163.3645 C.3     1  UNL1        0.0711
     28 H         141.1447  145.2498  162.6851 H       1  UNL1        0.1234
@<TRIPOS>BOND
     1    11    12    1
     2    12    13   ar
     3    13    14   ar
     4    14     1    1
     5     1     2   ar
     6     2     3   ar
     7     3     4   ar
     8     4     5   ar
     9     5     6   ar
    10     6     7   ar
    11     7     8   ar
    12     8     9   ar
    13     9    17    1
    14    17    19    1
    15    19    20    1
    16    20    21    1
    17    21    22    1
    18    22    23    1
    19    23    24    1
    20    24    25    1
    21    24    26    1
    22    24    27    1
    23     9    10   ar
    24    14    15   ar
    25    15    16   ar
    26    16    12   ar
    27    10     1   ar
    28     8     3   ar
    29    27    20    1
    30    17    18    1
    31    22    28    1
@<TRIPOS>MOLECULE
*****
 28 31 0 0 0
SMALL
GASTEIGER

@<TRIPOS>ATOM
      1 C         139.8318  141.8241  166.1034 C.ar    1  UNL1        0.0873
      2 C         139.2002  140.9275  165.0801 C.ar    1  UNL1        0.0400
      3 C         138.9139  141.4469  163.7022 C.ar    1  UNL1        0.1032
      4 N         138.2823  140.5502  162.6790 N.ar    1  UNL1       -0.2405
      5 C         137.9961  141.0696  161.3012 C.ar    1  UNL1        0.1195
      6 C         138.3415  142.4856  160.9467 C.ar    1  UNL1        0.1196
      7 N         138.9731  143.3822  161.9700 N.ar    1  UNL1       -0.2379
      8 C         139.2593  142.8628  163.3477 C.ar    1  UNL1        0.1302
      9 C         139.8910  143.7595  164.3711 C.ar    1  UNL1        0.1477
     10 N         140.1772  143.2401  165.7489 N.ar    1  UNL1       -0.2292
     11 C         141.5929  141.4617  171.0681 C.3     1  UNL1        0.1538
     12 N         140.9276  141.1382  169.7632 N.ar    1  UNL1       -0.2473
     13 C         140.8834  142.0231  168.5528 C.ar    1  UNL1        0.0982
     14 C         140.1180  141.3048  167.4812 C.ar    1  UNL1        0.0573
     15 C         139.6891  139.9760  168.0293 C.ar    1  UNL1        0.1231
     16 N         140.1894  139.8730  169.4397 N.ar    1  UNL1       -0.1675
     17 N         140.2364  145.1755  164.0166 N.pl3   1  UNL1       -0.3168
     18 H         139.5321  145.8630  163.9937 H       1  UNL1        0.1482
     19 C         141.6548  145.5439  163.6969 C.3     1  UNL1        0.0897
     20 C         142.6539  144.4722  163.3758 C.3     1  UNL1        0.0408
     21 C         142.6291  143.8014  162.0344 C.3     1  UNL1        0.0705
     22 N         143.6283  142.7297  161.7132 N.3     1  UNL1       -0.2929
     23 C         144.6523  142.3289  162.7334 C.3     1  UNL1        0.1359
     24 C         144.6771  142.9997  164.0749 C.3     1  UNL1        0.2782
     25 F         145.0999  143.3394  165.4734 F       1  UNL1       -0.2028
     26 F         145.8230  142.0460  164.2394 F       1  UNL1       -0.2028
     27 C         143.6779  144.0714  164.3960 C.3     1  UNL1        0.0711
     28 H         144.1409  143.0425  160.8888 H       1  UNL1        0.1234
@<TRIPOS>BOND
     1    11    12    1
     2    12    13   ar
     3    13    14   ar
     4    14     1    1
     5     1     2   ar
     6     2     3   ar
     7     3     4   ar
     8     4     5   ar
     9     5     6   ar
    10     6     7   ar
    11     7     8   ar
    12     8     9   ar
    13     9    17    1
    14    17    19    1
    15    19    20    1
    16    20    21    1
    17    21    22    1
    18    22    23    1
    19    23    24    1
    20    24    25    1
    21    24    26    1
    22    24    27    1
    23     9    10   ar
    24    14    15   ar
    25    15    16   ar
    26    16    12   ar
    27    10     1   ar
    28     8     3   ar
    29    27    20    1
    30    17    18    1
    31    22    28    1
@<TRIPOS>MOLECULE
*****
 28 31 0 0 0
SMALL
GASTEIGER

@<TRIPOS>ATOM
      1 C         139.6898  141.9097  166.1189 C.ar    1  UNL1        0.0873
      2 C         140.4336  143.1141  165.6227 C.ar    1  UNL1        0.0400
      3 C         140.1480  143.6613  164.2555 C.ar    1  UNL1        0.1032
      4 N         140.8918  144.8657  163.7593 N.ar    1  UNL1       -0.2405
      5 C         140.6061  145.4129  162.3923 C.ar    1  UNL1        0.1195
      6 C         139.5766  144.7558  161.5214 C.ar    1  UNL1        0.1196
      7 N         138.8328  143.5514  162.0176 N.ar    1  UNL1       -0.2379
      8 C         139.1185  143.0042  163.3847 C.ar    1  UNL1        0.1302
      9 C         138.3747  141.7998  163.8810 C.ar    1  UNL1        0.1477
     10 N         138.6604  141.2526  165.2480 N.ar    1  UNL1       -0.2292
     11 C         141.4066  141.4657  171.0925 C.3     1  UNL1        0.1538
     12 N         140.7646  141.1584  169.7721 N.ar    1  UNL1       -0.2473
     13 C         140.7089  142.0732  168.5846 C.ar    1  UNL1        0.0982
     14 C         139.9755  141.3624  167.4860 C.ar    1  UNL1        0.0573
     15 C         139.5779  140.0084  167.9945 C.ar    1  UNL1        0.1231
     16 N         140.0656  139.8823  169.4073 N.ar    1  UNL1       -0.1675
     17 N         137.3452  141.1427  163.0101 N.pl3   1  UNL1       -0.3168
     18 H         136.4203  141.4798  163.0013 H       1  UNL1        0.1482
     19 C         137.7250  139.9720  162.1527 C.3     1  UNL1        0.0897
     20 C         138.9516  139.1716  162.4767 C.3     1  UNL1        0.0408
     21 C         140.1699  139.2818  161.6087 C.3     1  UNL1        0.0705
     22 N         141.3965  138.4814  161.9327 N.3     1  UNL1       -0.2929
     23 C         141.4047  137.5710  163.1247 C.3     1  UNL1        0.1359
     24 C         140.1864  137.4608  163.9928 C.3     1  UNL1        0.2782
     25 F         139.2853  137.0195  165.1079 F       1  UNL1       -0.2028
     26 F         141.1000  136.5072  164.7040 F       1  UNL1       -0.2028
     27 C         138.9598  138.2611  163.6688 C.3     1  UNL1        0.0711
     28 H         142.1565  139.1485  162.0664 H       1  UNL1        0.1234
@<TRIPOS>BOND
     1    11    12    1
     2    12    13   ar
     3    13    14   ar
     4    14     1    1
     5     1     2   ar
     6     2     3   ar
     7     3     4   ar
     8     4     5   ar
     9     5     6   ar
    10     6     7   ar
    11     7     8   ar
    12     8     9   ar
    13     9    17    1
    14    17    19    1
    15    19    20    1
    16    20    21    1
    17    21    22    1
    18    22    23    1
    19    23    24    1
    20    24    25    1
    21    24    26    1
    22    24    27    1
    23     9    10   ar
    24    14    15   ar
    25    15    16   ar
    26    16    12   ar
    27    10     1   ar
    28     8     3   ar
    29    27    20    1
    30    17    18    1
    31    22    28    1
@<TRIPOS>MOLECULE
*****
 28 31 0 0 0
SMALL
GASTEIGER

@<TRIPOS>ATOM
      1 C         141.5368  139.5994  166.4450 C.ar    1  UNL1        0.0873
      2 C         140.2042  139.2104  165.8768 C.ar    1  UNL1        0.0400
      3 C         140.0886  138.8253  164.4316 C.ar    1  UNL1        0.1032
      4 N         138.7560  138.4362  163.8635 N.ar    1  UNL1       -0.2405
      5 C         138.6404  138.0512  162.4184 C.ar    1  UNL1        0.1195
      6 C         139.8573  138.0553  161.5415 C.ar    1  UNL1        0.1196
      7 N         141.1899  138.4443  162.1096 N.ar    1  UNL1       -0.2379
      8 C         141.3055  138.8293  163.5547 C.ar    1  UNL1        0.1302
      9 C         142.6381  139.2184  164.1229 C.ar    1  UNL1        0.1477
     10 N         142.7537  139.6035  165.5680 N.ar    1  UNL1       -0.2292
     11 C         140.7347  141.9881  171.0853 C.3     1  UNL1        0.1538
     12 N         141.2837  141.0824  170.0230 N.ar    1  UNL1       -0.2473
     13 C         140.8359  141.0286  168.5924 C.ar    1  UNL1        0.0982
     14 C         141.6525  139.9845  167.8901 C.ar    1  UNL1        0.0573
     15 C         142.6049  139.3931  168.8867 C.ar    1  UNL1        0.1231
     16 N         142.3770  140.0716  170.2049 N.ar    1  UNL1       -0.1675
     17 N         143.8551  139.2225  163.2460 N.pl3   1  UNL1       -0.3168
     18 H         143.9527  138.5472  162.5363 H       1  UNL1        0.1482
     19 C         144.9234  140.2554  163.4504 C.3     1  UNL1        0.0897
     20 C         144.5979  141.7116  163.2966 C.3     1  UNL1        0.0408
     21 C         144.2351  142.2607  161.9488 C.3     1  UNL1        0.0705
     22 N         143.9097  143.7169  161.7950 N.3     1  UNL1       -0.2929
     23 C         143.9470  144.6239  162.9891 C.3     1  UNL1        0.1359
     24 C         144.3098  144.0748  164.3370 C.3     1  UNL1        0.2782
     25 F         144.5938  144.0253  165.8091 F       1  UNL1       -0.2028
     26 F         144.0830  145.5137  164.6945 F       1  UNL1       -0.2028
     27 C         144.6353  142.6186  164.4908 C.3     1  UNL1        0.0711
     28 H         142.9645  143.7688  161.4152 H       1  UNL1        0.1234
@<TRIPOS>BOND
     1    11    12    1
     2    12    13   ar
     3    13    14   ar
     4    14     1    1
     5     1     2   ar
     6     2     3   ar
     7     3     4   ar
     8     4     5   ar
     9     5     6   ar
    10     6     7   ar
    11     7     8   ar
    12     8     9   ar
    13     9    17    1
    14    17    19    1
    15    19    20    1
    16    20    21    1
    17    21    22    1
    18    22    23    1
    19    23    24    1
    20    24    25    1
    21    24    26    1
    22    24    27    1
    23     9    10   ar
    24    14    15   ar
    25    15    16   ar
    26    16    12   ar
    27    10     1   ar
    28     8     3   ar
    29    27    20    1
    30    17    18    1
    31    22    28    1
