@<TRIPOS>MOLECULE
*****
 37 40 0 0 0
SMALL
GASTEIGER

@<TRIPOS>ATOM
      1 C         141.4922  141.7224  163.2026 C.3     1  UNL1        0.1031
      2 C         141.9250  140.8951  167.6047 C.ar    1  UNL1        0.0536
      3 C         142.7645  141.9546  166.9546 C.ar    1  UNL1        0.0042
      4 C         142.6202  142.2303  165.4872 C.ar    1  UNL1       -0.0025
      5 C         141.6365  141.4466  164.6700 C.ar    1  UNL1       -0.0036
      6 C         140.7970  140.3871  165.3201 C.ar    1  UNL1       -0.0025
      7 C         140.9412  140.1114  166.7874 C.ar    1  UNL1        0.0042
      8 N         141.1943  141.3337  170.0590 N.am    1  UNL1       -0.2743
      9 C         141.3385  141.0579  171.5263 C.3     1  UNL1        0.1152
     10 C         142.0692  140.6193  169.0720 C.2     1  UNL1        0.2491
     11 O         143.0884  139.6292  169.5525 O.2     1  UNL1       -0.2699
     12 C         140.4653  143.7937  169.6502 C.3     1  UNL1        0.0233
     13 C         140.1750  142.3238  169.5786 C.3     1  UNL1        0.0938
     14 C         141.0220  143.0678  162.7350 C.ar    1  UNL1       -0.0024
     15 C         139.9373  143.7848  163.4829 C.ar    1  UNL1       -0.0026
     16 C         139.4671  145.1302  163.0153 C.ar    1  UNL1        0.0010
     17 C         140.0815  145.7586  161.7997 C.ar    1  UNL1        0.0147
     18 C         141.1661  145.0417  161.0518 C.ar    1  UNL1        0.0529
     19 C         141.6364  143.6962  161.5194 C.ar    1  UNL1        0.0121
     20 N         141.7804  145.6701  159.8362 N.am    1  UNL1       -0.2499
     21 C         141.1675  145.4469  158.4855 C.2     1  UNL1        0.4055
     22 O         139.9401  144.5952  158.3504 O.2     1  UNL1       -0.2261
     23 H         142.5860  146.2290  159.9249 H       1  UNL1        0.1582
     24 O         141.7819  146.0753  157.2699 O.3     1  UNL1       -0.4304
     25 C         142.0965  145.2339  156.0686 C.3     1  UNL1        0.2574
     26 N         141.8182  140.6527  162.2028 N.3     1  UNL1       -0.2644
     27 C         143.2444  140.2459  161.9778 C.3     1  UNL1        0.0901
     28 C         143.5703  139.1762  160.9780 C.3     1  UNL1        0.0900
     29 N         142.4702  138.5133  160.2033 N.3     1  UNL1       -0.2652
     30 C         141.0440  138.9201  160.4283 C.3     1  UNL1        0.0900
     31 C         140.7180  139.9898  161.4281 C.3     1  UNL1        0.0901
     32 C         142.7961  137.4436  159.2035 C.3     1  UNL1        0.1193
     33 C         142.7022  137.7357  157.7352 C.ar    1  UNL1        0.0823
     34 C         141.7260  137.1231  156.7751 C.ar    1  UNL1        0.0530
     35 S         141.9884  137.7004  155.4157 S.2     1  UNL1       -0.0643
     36 C         143.1268  138.6698  155.5357 C.ar    1  UNL1        0.1341
     37 N         143.5679  138.6917  156.9692 N.ar    1  UNL1       -0.2392
@<TRIPOS>BOND
     1    12    13    1
     2    13     8    1
     3     8     9    1
     4     8    10   am
     5    10    11    2
     6    10     2    1
     7     2     3   ar
     8     3     4   ar
     9     4     5   ar
    10     5     1    1
    11     1    14    1
    12    14    15   ar
    13    15    16   ar
    14    16    17   ar
    15    17    18   ar
    16    18    20    1
    17    20    21   am
    18    21    22    2
    19    21    24    1
    20    24    25    1
    21    18    19   ar
    22     1    26    1
    23    26    27    1
    24    27    28    1
    25    28    29    1
    26    29    32    1
    27    32    33    1
    28    33    34   ar
    29    34    35   ar
    30    35    36   ar
    31    36    37   ar
    32    29    30    1
    33    30    31    1
    34     5     6   ar
    35     6     7   ar
    36     7     2   ar
    37    19    14   ar
    38    31    26    1
    39    37    33   ar
    40    20    23    1
@<TRIPOS>MOLECULE
*****
 37 40 0 0 0
SMALL
GASTEIGER

@<TRIPOS>ATOM
      1 C         140.9496  139.1417  158.6076 C.3     1  UNL1        0.1031
      2 C         139.7432  138.5031  162.8956 C.ar    1  UNL1        0.0536
      3 C         138.8144  138.1035  161.7877 C.ar    1  UNL1        0.0042
      4 C         139.2165  138.3164  160.3584 C.ar    1  UNL1       -0.0025
      5 C         140.5474  138.9289  160.0370 C.ar    1  UNL1       -0.0036
      6 C         141.4763  139.3285  161.1449 C.ar    1  UNL1       -0.0025
      7 C         141.0742  139.1156  162.5742 C.ar    1  UNL1        0.0042
      8 N         138.4832  139.3044  165.0217 N.am    1  UNL1       -0.2743
      9 C         138.0811  139.0916  166.4511 C.3     1  UNL1        0.1152
     10 C         139.3411  138.2903  164.3250 C.2     1  UNL1        0.2491
     11 O         139.7968  137.0633  165.0575 O.2     1  UNL1       -0.2699
     12 C         138.6871  141.8521  164.5551 C.3     1  UNL1        0.0233
     13 C         138.0274  140.5315  164.2892 C.3     1  UNL1        0.0938
     14 C         140.9845  140.5284  158.0369 C.ar    1  UNL1       -0.0024
     15 C         141.7276  140.7961  156.7616 C.ar    1  UNL1       -0.0026
     16 C         141.7625  142.1828  156.1909 C.ar    1  UNL1        0.0010
     17 C         141.0544  143.3019  156.8954 C.ar    1  UNL1        0.0147
     18 C         140.3113  143.0343  158.1705 C.ar    1  UNL1        0.0529
     19 C         140.2764  141.6475  158.7414 C.ar    1  UNL1        0.0121
     20 N         139.6032  144.1533  158.8750 N.am    1  UNL1       -0.2499
     21 C         140.3758  145.0997  159.7453 C.2     1  UNL1        0.4055
     22 O         141.8567  144.9270  159.9111 O.2     1  UNL1       -0.2261
     23 H         138.6313  144.2667  158.7662 H       1  UNL1        0.1582
     24 O         139.6677  146.2187  160.4497 O.3     1  UNL1       -0.4304
     25 C         139.6364  146.2605  161.9489 C.3     1  UNL1        0.2574
     26 N         141.3168  137.9679  157.7490 N.3     1  UNL1       -0.2644
     27 C         142.6451  137.2944  157.9276 C.3     1  UNL1        0.0901
     28 C         143.0123  136.1205  157.0690 C.3     1  UNL1        0.0900
     29 N         142.0511  135.6202  156.0318 N.3     1  UNL1       -0.2652
     30 C         140.7228  136.2937  155.8532 C.3     1  UNL1        0.0900
     31 C         140.3556  137.4675  156.7118 C.3     1  UNL1        0.0901
     32 C         142.4183  134.4463  155.1731 C.3     1  UNL1        0.1193
     33 C         142.9531  133.1944  155.8031 C.ar    1  UNL1        0.0823
     34 C         144.4005  132.8259  155.9414 C.ar    1  UNL1        0.0530
     35 S         144.4763  131.4949  156.6291 S.2     1  UNL1       -0.0643
     36 C         143.0757  131.0409  156.9159 C.ar    1  UNL1        0.1341
     37 N         142.1342  132.0912  156.4053 N.ar    1  UNL1       -0.2392
@<TRIPOS>BOND
     1    12    13    1
     2    13     8    1
     3     8     9    1
     4     8    10   am
     5    10    11    2
     6    10     2    1
     7     2     3   ar
     8     3     4   ar
     9     4     5   ar
    10     5     1    1
    11     1    14    1
    12    14    15   ar
    13    15    16   ar
    14    16    17   ar
    15    17    18   ar
    16    18    20    1
    17    20    21   am
    18    21    22    2
    19    21    24    1
    20    24    25    1
    21    18    19   ar
    22     1    26    1
    23    26    27    1
    24    27    28    1
    25    28    29    1
    26    29    32    1
    27    32    33    1
    28    33    34   ar
    29    34    35   ar
    30    35    36   ar
    31    36    37   ar
    32    29    30    1
    33    30    31    1
    34     5     6   ar
    35     6     7   ar
    36     7     2   ar
    37    19    14   ar
    38    31    26    1
    39    37    33   ar
    40    20    23    1
@<TRIPOS>MOLECULE
*****
 37 40 0 0 0
SMALL
GASTEIGER

@<TRIPOS>ATOM
      1 C         144.0885  142.4019  159.0012 C.3     1  UNL1        0.1031
      2 C         147.4074  142.0977  155.9776 C.ar    1  UNL1        0.0536
      3 C         147.5686  142.9767  157.1823 C.ar    1  UNL1        0.0042
      4 C         146.4623  143.0781  158.1902 C.ar    1  UNL1       -0.0025
      5 C         145.1948  142.3005  157.9933 C.ar    1  UNL1       -0.0036
      6 C         145.0336  141.4215  156.7886 C.ar    1  UNL1       -0.0025
      7 C         146.1399  141.3201  155.7808 C.ar    1  UNL1        0.0042
      8 N         148.4077  142.7264  153.6637 N.am    1  UNL1       -0.2743
      9 C         149.5140  142.6250  152.6559 C.3     1  UNL1        0.1152
     10 C         148.5137  141.9963  154.9697 C.2     1  UNL1        0.2491
     11 O         149.7260  141.1648  155.2679 O.2     1  UNL1       -0.2699
     12 C         147.2975  145.0543  153.3504 C.3     1  UNL1        0.0233
     13 C         147.1954  143.5579  153.3655 C.3     1  UNL1        0.0938
     14 C         142.9355  143.3301  158.7585 C.ar    1  UNL1       -0.0024
     15 C         142.9653  144.2744  157.5933 C.ar    1  UNL1       -0.0026
     16 C         141.8123  145.2026  157.3505 C.ar    1  UNL1        0.0010
     17 C         140.6295  145.1866  158.2729 C.ar    1  UNL1        0.0147
     18 C         140.5997  144.2425  159.4380 C.ar    1  UNL1        0.0529
     19 C         141.7527  143.3142  159.6808 C.ar    1  UNL1        0.0121
     20 N         139.4169  144.2265  160.3604 N.am    1  UNL1       -0.2499
     21 C         139.4781  144.9532  161.6711 C.2     1  UNL1        0.4055
     22 O         140.7222  145.6959  162.0596 O.2     1  UNL1       -0.2261
     23 H         138.6004  143.7391  160.1055 H       1  UNL1        0.1582
     24 O         138.2954  144.9373  162.5935 O.3     1  UNL1       -0.4304
     25 C         137.7617  143.6325  163.1062 C.3     1  UNL1        0.2574
     26 N         144.1352  141.5751  160.2519 N.3     1  UNL1       -0.2644
     27 C         144.7024  142.1550  161.5136 C.3     1  UNL1        0.0901
     28 C         144.7490  141.3280  162.7643 C.3     1  UNL1        0.0900
     29 N         144.2285  139.9213  162.7532 N.3     1  UNL1       -0.2652
     30 C         143.6613  139.3415  161.4914 C.3     1  UNL1        0.0900
     31 C         143.6146  140.1683  160.2408 C.3     1  UNL1        0.0901
     32 C         144.2752  139.0944  164.0039 C.3     1  UNL1        0.1193
     33 C         143.2007  139.2409  165.0403 C.ar    1  UNL1        0.0823
     34 C         141.7349  139.4130  164.7724 C.ar    1  UNL1        0.0530
     35 S         141.0317  139.5194  166.0931 S.2     1  UNL1       -0.0643
     36 C         142.0629  139.4129  167.1772 C.ar    1  UNL1        0.1341
     37 N         143.4035  139.2408  166.5266 N.ar    1  UNL1       -0.2392
@<TRIPOS>BOND
     1    12    13    1
     2    13     8    1
     3     8     9    1
     4     8    10   am
     5    10    11    2
     6    10     2    1
     7     2     3   ar
     8     3     4   ar
     9     4     5   ar
    10     5     1    1
    11     1    14    1
    12    14    15   ar
    13    15    16   ar
    14    16    17   ar
    15    17    18   ar
    16    18    20    1
    17    20    21   am
    18    21    22    2
    19    21    24    1
    20    24    25    1
    21    18    19   ar
    22     1    26    1
    23    26    27    1
    24    27    28    1
    25    28    29    1
    26    29    32    1
    27    32    33    1
    28    33    34   ar
    29    34    35   ar
    30    35    36   ar
    31    36    37   ar
    32    29    30    1
    33    30    31    1
    34     5     6   ar
    35     6     7   ar
    36     7     2   ar
    37    19    14   ar
    38    31    26    1
    39    37    33   ar
    40    20    23    1
@<TRIPOS>MOLECULE
*****
 37 40 0 0 0
SMALL
GASTEIGER

@<TRIPOS>ATOM
      1 C         142.9126  138.1275  157.2643 C.3     1  UNL1        0.1031
      2 C         140.4210  138.4790  160.9950 C.ar    1  UNL1        0.0536
      3 C         139.8196  138.7985  159.6585 C.ar    1  UNL1        0.0042
      4 C         140.6501  138.6813  158.4150 C.ar    1  UNL1       -0.0025
      5 C         142.0821  138.2447  158.5078 C.ar    1  UNL1       -0.0036
      6 C         142.6836  137.9252  159.8443 C.ar    1  UNL1       -0.0025
      7 C         141.8530  138.0424  161.0879 C.ar    1  UNL1        0.0042
      8 N         139.4249  139.9288  162.9070 N.am    1  UNL1       -0.2743
      9 C         138.5944  140.0459  164.1506 C.3     1  UNL1        0.1152
     10 C         139.5905  138.5962  162.2386 C.2     1  UNL1        0.2491
     11 O         138.9256  137.3809  162.8137 O.2     1  UNL1       -0.2699
     12 C         141.5129  141.4590  162.6865 C.3     1  UNL1        0.0233
     13 C         140.0899  141.1442  162.3320 C.3     1  UNL1        0.0938
     14 C         142.8011  136.9065  156.4002 C.ar    1  UNL1       -0.0024
     15 C         141.7838  136.8573  155.2989 C.ar    1  UNL1       -0.0026
     16 C         141.6722  135.6363  154.4349 C.ar    1  UNL1        0.0010
     17 C         142.5780  134.4644  154.6720 C.ar    1  UNL1        0.0147
     18 C         143.5953  134.5135  155.7731 C.ar    1  UNL1        0.0529
     19 C         143.7069  135.7346  156.6373 C.ar    1  UNL1        0.0121
     20 N         144.5011  133.3416  156.0103 N.am    1  UNL1       -0.2499
     21 C         144.0008  132.1486  156.7694 C.2     1  UNL1        0.4055
     22 O         142.5947  132.1274  157.2915 O.2     1  UNL1       -0.2261
     23 H         145.4239  133.3555  155.6676 H       1  UNL1        0.1582
     24 O         144.9066  130.9767  157.0065 O.3     1  UNL1       -0.4304
     25 C         144.5820  129.9836  158.0830 C.3     1  UNL1        0.2574
     26 N         143.8547  139.2313  156.8847 N.3     1  UNL1       -0.2644
     27 C         143.9839  140.4416  157.7613 C.3     1  UNL1        0.0901
     28 C         144.9260  141.5454  157.3818 C.3     1  UNL1        0.0900
     29 N         145.7389  141.4389  156.1257 N.3     1  UNL1       -0.2652
     30 C         145.6097  140.2286  155.2491 C.3     1  UNL1        0.0900
     31 C         144.6676  139.1248  155.6286 C.3     1  UNL1        0.0901
     32 C         146.6810  142.5428  155.7461 C.3     1  UNL1        0.1193
     33 C         148.0215  142.2156  155.1579 C.ar    1  UNL1        0.0823
     34 C         148.4007  142.3280  153.7110 C.ar    1  UNL1        0.0530
     35 S         149.8317  141.9004  153.5722 S.2     1  UNL1       -0.0643
     36 C         150.3370  141.5237  154.9333 C.ar    1  UNL1        0.1341
     37 N         149.2183  141.7184  155.9134 N.ar    1  UNL1       -0.2392
@<TRIPOS>BOND
     1    12    13    1
     2    13     8    1
     3     8     9    1
     4     8    10   am
     5    10    11    2
     6    10     2    1
     7     2     3   ar
     8     3     4   ar
     9     4     5   ar
    10     5     1    1
    11     1    14    1
    12    14    15   ar
    13    15    16   ar
    14    16    17   ar
    15    17    18   ar
    16    18    20    1
    17    20    21   am
    18    21    22    2
    19    21    24    1
    20    24    25    1
    21    18    19   ar
    22     1    26    1
    23    26    27    1
    24    27    28    1
    25    28    29    1
    26    29    32    1
    27    32    33    1
    28    33    34   ar
    29    34    35   ar
    30    35    36   ar
    31    36    37   ar
    32    29    30    1
    33    30    31    1
    34     5     6   ar
    35     6     7   ar
    36     7     2   ar
    37    19    14   ar
    38    31    26    1
    39    37    33   ar
    40    20    23    1
@<TRIPOS>MOLECULE
*****
 37 40 0 0 0
SMALL
GASTEIGER

@<TRIPOS>ATOM
      1 C         143.6229  142.1873  158.3626 C.3     1  UNL1        0.1031
      2 C         147.2858  142.1051  155.7499 C.ar    1  UNL1        0.0536
      3 C         146.0306  141.4158  155.3035 C.ar    1  UNL1        0.0042
      4 C         144.8096  141.4433  156.1744 C.ar    1  UNL1       -0.0025
      5 C         144.8439  142.1599  157.4917 C.ar    1  UNL1       -0.0036
      6 C         146.0991  142.8492  157.9380 C.ar    1  UNL1       -0.0025
      7 C         147.3201  142.8218  157.0671 C.ar    1  UNL1        0.0042
      8 N         148.5266  142.8459  153.5908 N.am    1  UNL1       -0.2743
      9 C         149.7475  142.8185  152.7199 C.3     1  UNL1        0.1152
     10 C         148.5068  142.0777  154.8789 C.2     1  UNL1        0.2491
     11 O         149.7080  141.2821  155.2962 O.2     1  UNL1       -0.2699
     12 C         147.2305  145.0966  153.5250 C.3     1  UNL1        0.0233
     13 C         147.3254  143.6415  153.1734 C.3     1  UNL1        0.0938
     14 C         142.7052  143.3733  158.3304 C.ar    1  UNL1       -0.0024
     15 C         142.8629  144.4149  157.2625 C.ar    1  UNL1       -0.0026
     16 C         141.9451  145.6009  157.2303 C.ar    1  UNL1        0.0010
     17 C         140.8696  145.7453  158.2659 C.ar    1  UNL1        0.0147
     18 C         140.7118  144.7038  159.3336 C.ar    1  UNL1        0.0529
     19 C         141.6296  143.5177  159.3659 C.ar    1  UNL1        0.0121
     20 N         139.6363  144.8482  160.3692 N.am    1  UNL1       -0.2499
     21 C         140.0037  145.0829  161.8044 C.2     1  UNL1        0.4055
     22 O         141.4467  145.1731  162.2042 O.2     1  UNL1       -0.2261
     23 H         138.6892  144.7890  160.1069 H       1  UNL1        0.1582
     24 O         138.9281  145.2273  162.8400 O.3     1  UNL1       -0.4304
     25 C         137.8880  144.1576  162.9952 C.3     1  UNL1        0.2574
     26 N         143.3197  141.0287  159.2658 N.3     1  UNL1       -0.2644
     27 C         142.4234  139.9231  158.7922 C.3     1  UNL1        0.0901
     28 C         142.1202  138.7645  159.6954 C.3     1  UNL1        0.0900
     29 N         142.7134  138.7115  161.0721 N.3     1  UNL1       -0.2652
     30 C         143.6097  139.8172  161.5457 C.3     1  UNL1        0.0900
     31 C         143.9129  140.9757  160.6425 C.3     1  UNL1        0.0901
     32 C         142.4102  137.5529  161.9754 C.3     1  UNL1        0.1193
     33 C         141.2149  137.6002  162.8803 C.ar    1  UNL1        0.0823
     34 C         139.7945  137.8251  162.4539 C.ar    1  UNL1        0.0530
     35 S         138.9318  137.7948  163.6806 S.2     1  UNL1       -0.0643
     36 C         139.8190  137.5512  164.8653 C.ar    1  UNL1        0.1341
     37 N         141.2301  137.4310  164.3708 N.ar    1  UNL1       -0.2392
@<TRIPOS>BOND
     1    12    13    1
     2    13     8    1
     3     8     9    1
     4     8    10   am
     5    10    11    2
     6    10     2    1
     7     2     3   ar
     8     3     4   ar
     9     4     5   ar
    10     5     1    1
    11     1    14    1
    12    14    15   ar
    13    15    16   ar
    14    16    17   ar
    15    17    18   ar
    16    18    20    1
    17    20    21   am
    18    21    22    2
    19    21    24    1
    20    24    25    1
    21    18    19   ar
    22     1    26    1
    23    26    27    1
    24    27    28    1
    25    28    29    1
    26    29    32    1
    27    32    33    1
    28    33    34   ar
    29    34    35   ar
    30    35    36   ar
    31    36    37   ar
    32    29    30    1
    33    30    31    1
    34     5     6   ar
    35     6     7   ar
    36     7     2   ar
    37    19    14   ar
    38    31    26    1
    39    37    33   ar
    40    20    23    1
@<TRIPOS>MOLECULE
*****
 37 40 0 0 0
SMALL
GASTEIGER

@<TRIPOS>ATOM
      1 C         141.1586  138.9807  158.1904 C.3     1  UNL1        0.1031
      2 C         141.6263  135.8681  154.9743 C.ar    1  UNL1        0.0536
      3 C         140.2667  136.4114  155.3002 C.ar    1  UNL1        0.0042
      4 C         140.1108  137.4489  156.3722 C.ar    1  UNL1       -0.0025
      5 C         141.3145  137.9431  157.1184 C.ar    1  UNL1       -0.0036
      6 C         142.6741  137.3998  156.7926 C.ar    1  UNL1       -0.0025
      7 C         142.8300  136.3623  155.7205 C.ar    1  UNL1        0.0042
      8 N         141.8044  133.3752  154.2647 N.am    1  UNL1       -0.2743
      9 C         141.9603  132.3376  153.1927 C.3     1  UNL1        0.1152
     10 C         141.7822  134.8306  153.9023 C.2     1  UNL1        0.2491
     11 O         141.9161  135.2484  152.4680 O.2     1  UNL1       -0.2699
     12 C         142.8944  132.6300  156.5022 C.3     1  UNL1        0.0233
     13 C         141.6705  132.9573  155.6991 C.3     1  UNL1        0.0938
     14 C         141.0590  140.4312  157.8215 C.ar    1  UNL1       -0.0024
     15 C         141.6659  140.9228  156.5409 C.ar    1  UNL1       -0.0026
     16 C         141.5664  142.3732  156.1720 C.ar    1  UNL1        0.0010
     17 C         140.8598  143.3322  157.0837 C.ar    1  UNL1        0.0147
     18 C         140.2529  142.8407  158.3643 C.ar    1  UNL1        0.0529
     19 C         140.3525  141.3901  158.7332 C.ar    1  UNL1        0.0121
     20 N         139.5464  143.7996  159.2760 N.am    1  UNL1       -0.2499
     21 C         140.3118  144.9059  159.9395 C.2     1  UNL1        0.4055
     22 O         141.7838  145.0533  159.6913 O.2     1  UNL1       -0.2261
     23 H         138.5803  143.7029  159.4389 H       1  UNL1        0.1582
     24 O         139.6053  145.8649  160.8512 O.3     1  UNL1       -0.4304
     25 C         139.9184  145.8740  162.3182 C.3     1  UNL1        0.2574
     26 N         141.1022  138.5677  159.6313 N.3     1  UNL1       -0.2644
     27 C         139.7762  138.3491  160.2975 C.3     1  UNL1        0.0901
     28 C         139.7199  137.9361  161.7385 C.3     1  UNL1        0.0900
     29 N         140.9896  137.7418  162.5132 N.3     1  UNL1       -0.2652
     30 C         142.3156  137.9604  161.8469 C.3     1  UNL1        0.0900
     31 C         142.3719  138.3734  160.4060 C.3     1  UNL1        0.0901
     32 C         140.9333  137.3288  163.9542 C.3     1  UNL1        0.1193
     33 C         140.0349  138.0580  164.9088 C.ar    1  UNL1        0.0823
     34 C         140.3254  139.3780  165.5593 C.ar    1  UNL1        0.0530
     35 S         139.1584  139.7311  166.4330 S.2     1  UNL1       -0.0643
     36 C         138.1466  138.6292  166.3226 C.ar    1  UNL1        0.1341
     37 N         138.6883  137.5951  165.3805 N.ar    1  UNL1       -0.2392
@<TRIPOS>BOND
     1    12    13    1
     2    13     8    1
     3     8     9    1
     4     8    10   am
     5    10    11    2
     6    10     2    1
     7     2     3   ar
     8     3     4   ar
     9     4     5   ar
    10     5     1    1
    11     1    14    1
    12    14    15   ar
    13    15    16   ar
    14    16    17   ar
    15    17    18   ar
    16    18    20    1
    17    20    21   am
    18    21    22    2
    19    21    24    1
    20    24    25    1
    21    18    19   ar
    22     1    26    1
    23    26    27    1
    24    27    28    1
    25    28    29    1
    26    29    32    1
    27    32    33    1
    28    33    34   ar
    29    34    35   ar
    30    35    36   ar
    31    36    37   ar
    32    29    30    1
    33    30    31    1
    34     5     6   ar
    35     6     7   ar
    36     7     2   ar
    37    19    14   ar
    38    31    26    1
    39    37    33   ar
    40    20    23    1
@<TRIPOS>MOLECULE
*****
 37 40 0 0 0
SMALL
GASTEIGER

@<TRIPOS>ATOM
      1 C         142.0401  138.8307  158.5707 C.3     1  UNL1        0.1031
      2 C         141.8372  136.1212  154.9836 C.ar    1  UNL1        0.0536
      3 C         140.7882  137.1735  155.1889 C.ar    1  UNL1        0.0042
      4 C         140.8558  138.0767  156.3846 C.ar    1  UNL1       -0.0025
      5 C         141.9724  137.9275  157.3750 C.ar    1  UNL1       -0.0036
      6 C         143.0214  136.8752  157.1697 C.ar    1  UNL1       -0.0025
      7 C         142.9538  135.9720  155.9740 C.ar    1  UNL1        0.0042
      8 N         141.4900  133.7553  153.9677 N.am    1  UNL1       -0.2743
      9 C         141.4224  132.8521  152.7720 C.3     1  UNL1        0.1152
     10 C         141.7696  135.2180  153.7879 C.2     1  UNL1        0.2491
     11 O         141.9815  135.7775  152.4124 O.2     1  UNL1       -0.2699
     12 C         142.3089  132.2924  155.9525 C.3     1  UNL1        0.0233
     13 C         141.2780  133.1958  155.3432 C.3     1  UNL1        0.0938
     14 C         142.8865  140.0684  158.5288 C.ar    1  UNL1       -0.0024
     15 C         143.7289  140.3604  157.3226 C.ar    1  UNL1       -0.0026
     16 C         144.5753  141.5981  157.2807 C.ar    1  UNL1        0.0010
     17 C         144.5793  142.5437  158.4451 C.ar    1  UNL1        0.0147
     18 C         143.7369  142.2517  159.6513 C.ar    1  UNL1        0.0529
     19 C         142.8904  141.0140  159.6932 C.ar    1  UNL1        0.0121
     20 N         143.7409  143.1974  160.8156 N.am    1  UNL1       -0.2499
     21 C         144.5739  142.8938  162.0255 C.2     1  UNL1        0.4055
     22 O         145.4030  141.6445  162.0711 O.2     1  UNL1       -0.2261
     23 H         143.1967  144.0173  160.7857 H       1  UNL1        0.1582
     24 O         144.5779  143.8394  163.1899 O.3     1  UNL1       -0.4304
     25 C         143.6712  145.0345  163.1886 C.3     1  UNL1        0.2574
     26 N         141.2613  138.4962  159.8083 N.3     1  UNL1       -0.2644
     27 C         139.7762  138.7048  159.8391 C.3     1  UNL1        0.0901
     28 C         138.9974  138.3703  161.0768 C.3     1  UNL1        0.0900
     29 N         139.7038  137.8273  162.2835 N.3     1  UNL1       -0.2652
     30 C         141.1889  137.6187  162.2526 C.3     1  UNL1        0.0900
     31 C         141.9676  137.9532  161.0150 C.3     1  UNL1        0.0901
     32 C         138.9250  137.4928  163.5211 C.3     1  UNL1        0.1193
     33 C         138.9758  138.4071  164.7092 C.ar    1  UNL1        0.0823
     34 C         139.7211  139.7063  164.7907 C.ar    1  UNL1        0.0530
     35 S         139.4962  140.2848  166.1562 S.2     1  UNL1       -0.0643
     36 C         138.6119  139.3432  166.9187 C.ar    1  UNL1        0.1341
     37 N         138.2903  138.1826  166.0244 N.ar    1  UNL1       -0.2392
@<TRIPOS>BOND
     1    12    13    1
     2    13     8    1
     3     8     9    1
     4     8    10   am
     5    10    11    2
     6    10     2    1
     7     2     3   ar
     8     3     4   ar
     9     4     5   ar
    10     5     1    1
    11     1    14    1
    12    14    15   ar
    13    15    16   ar
    14    16    17   ar
    15    17    18   ar
    16    18    20    1
    17    20    21   am
    18    21    22    2
    19    21    24    1
    20    24    25    1
    21    18    19   ar
    22     1    26    1
    23    26    27    1
    24    27    28    1
    25    28    29    1
    26    29    32    1
    27    32    33    1
    28    33    34   ar
    29    34    35   ar
    30    35    36   ar
    31    36    37   ar
    32    29    30    1
    33    30    31    1
    34     5     6   ar
    35     6     7   ar
    36     7     2   ar
    37    19    14   ar
    38    31    26    1
    39    37    33   ar
    40    20    23    1
@<TRIPOS>MOLECULE
*****
 37 40 0 0 0
SMALL
GASTEIGER

@<TRIPOS>ATOM
      1 C         141.4559  139.3019  159.2866 C.3     1  UNL1        0.1031
      2 C         139.6020  138.4884  163.3055 C.ar    1  UNL1        0.0536
      3 C         141.0632  138.2289  163.0872 C.ar    1  UNL1        0.0042
      4 C         141.6811  138.5000  161.7475 C.ar    1  UNL1       -0.0025
      5 C         140.8379  139.0307  160.6262 C.ar    1  UNL1       -0.0036
      6 C         139.3768  139.2903  160.8446 C.ar    1  UNL1       -0.0025
      7 C         138.7589  139.0191  162.1842 C.ar    1  UNL1        0.0042
      8 N         138.7767  139.3410  165.6167 N.am    1  UNL1       -0.2743
      9 C         138.1587  139.0699  166.9563 C.3     1  UNL1        0.1152
     10 C         138.9841  138.2173  164.6451 C.2     1  UNL1        0.2491
     11 O         138.5735  136.8223  165.0132 O.2     1  UNL1       -0.2699
     12 C         138.1672  141.7060  164.7302 C.3     1  UNL1        0.0233
     13 C         139.1872  140.7361  165.2487 C.3     1  UNL1        0.0938
     14 C         142.0799  140.6365  159.0048 C.ar    1  UNL1       -0.0024
     15 C         142.5551  140.9650  157.6205 C.ar    1  UNL1       -0.0026
     16 C         143.1791  142.2996  157.3386 C.ar    1  UNL1        0.0010
     17 C         143.3278  143.3058  158.4411 C.ar    1  UNL1        0.0147
     18 C         142.8526  142.9774  159.8254 C.ar    1  UNL1        0.0529
     19 C         142.2286  141.6427  160.1073 C.ar    1  UNL1        0.0121
     20 N         143.0014  143.9836  160.9279 N.am    1  UNL1       -0.2499
     21 C         143.9879  143.7456  162.0324 C.2     1  UNL1        0.4055
     22 O         144.8257  142.5013  162.0345 O.2     1  UNL1       -0.2261
     23 H         142.4515  144.8002  160.9265 H       1  UNL1        0.1582
     24 O         144.1367  144.7518  163.1349 O.3     1  UNL1       -0.4304
     25 C         144.0640  144.3114  164.5670 C.3     1  UNL1        0.2574
     26 N         141.4499  138.2385  158.2288 N.3     1  UNL1       -0.2644
     27 C         142.6798  137.4148  157.9863 C.3     1  UNL1        0.0901
     28 C         142.6738  136.3513  156.9284 C.3     1  UNL1        0.0900
     29 N         141.4378  136.1116  156.1131 N.3     1  UNL1       -0.2652
     30 C         140.2079  136.9352  156.3556 C.3     1  UNL1        0.0900
     31 C         140.2139  137.9987  157.4134 C.3     1  UNL1        0.0901
     32 C         141.4318  135.0481  155.0552 C.3     1  UNL1        0.1193
     33 C         142.1199  133.7387  155.3041 C.ar    1  UNL1        0.0823
     34 C         142.8481  132.9170  154.2821 C.ar    1  UNL1        0.0530
     35 S         143.3789  131.6916  154.9651 S.2     1  UNL1       -0.0643
     36 C         142.9789  131.7559  156.4093 C.ar    1  UNL1        0.1341
     37 N         142.2007  133.0211  156.6189 N.ar    1  UNL1       -0.2392
@<TRIPOS>BOND
     1    12    13    1
     2    13     8    1
     3     8     9    1
     4     8    10   am
     5    10    11    2
     6    10     2    1
     7     2     3   ar
     8     3     4   ar
     9     4     5   ar
    10     5     1    1
    11     1    14    1
    12    14    15   ar
    13    15    16   ar
    14    16    17   ar
    15    17    18   ar
    16    18    20    1
    17    20    21   am
    18    21    22    2
    19    21    24    1
    20    24    25    1
    21    18    19   ar
    22     1    26    1
    23    26    27    1
    24    27    28    1
    25    28    29    1
    26    29    32    1
    27    32    33    1
    28    33    34   ar
    29    34    35   ar
    30    35    36   ar
    31    36    37   ar
    32    29    30    1
    33    30    31    1
    34     5     6   ar
    35     6     7   ar
    36     7     2   ar
    37    19    14   ar
    38    31    26    1
    39    37    33   ar
    40    20    23    1
@<TRIPOS>MOLECULE
*****
 37 40 0 0 0
SMALL
GASTEIGER

@<TRIPOS>ATOM
      1 C         139.0621  140.4829  157.1118 C.3     1  UNL1        0.1031
      2 C         138.9935  142.9127  160.8988 C.ar    1  UNL1        0.0536
      3 C         138.5054  141.4944  160.9087 C.ar    1  UNL1        0.0042
      4 C         138.5283  140.6845  159.6464 C.ar    1  UNL1       -0.0025
      5 C         139.0392  141.2928  158.3741 C.ar    1  UNL1       -0.0036
      6 C         139.5273  142.7111  158.3642 C.ar    1  UNL1       -0.0025
      7 C         139.5045  143.5211  159.6265 C.ar    1  UNL1        0.0042
      8 N         140.1685  143.7385  163.0638 N.am    1  UNL1       -0.2743
      9 C         140.1456  144.5485  164.3262 C.3     1  UNL1        0.1152
     10 C         138.9706  143.7226  162.1611 C.2     1  UNL1        0.2491
     11 O         137.7500  144.5167  162.5208 O.2     1  UNL1       -0.2699
     12 C         142.4961  143.5845  161.9198 C.3     1  UNL1        0.0233
     13 C         141.3893  142.9445  162.7042 C.3     1  UNL1        0.0938
     14 C         137.9562  140.6263  156.1086 C.ar    1  UNL1       -0.0024
     15 C         138.2569  140.5309  154.6421 C.ar    1  UNL1       -0.0026
     16 C         137.1511  140.6742  153.6389 C.ar    1  UNL1        0.0010
     17 C         135.7445  140.9129  154.1021 C.ar    1  UNL1        0.0147
     18 C         135.4438  141.0083  155.5685 C.ar    1  UNL1        0.0529
     19 C         136.5497  140.8650  156.5718 C.ar    1  UNL1        0.0121
     20 N         134.0372  141.2471  156.0317 N.am    1  UNL1       -0.2499
     21 C         133.2323  140.1158  156.5993 C.2     1  UNL1        0.4055
     22 O         133.8340  138.7456  156.7038 O.2     1  UNL1       -0.2261
     23 H         133.6423  142.1463  155.9631 H       1  UNL1        0.1582
     24 O         131.8257  140.3545  157.0626 O.3     1  UNL1       -0.4304
     25 C         130.7461  140.6458  156.0627 C.3     1  UNL1        0.2574
     26 N         140.1908  139.5296  156.8527 N.3     1  UNL1       -0.2644
     27 C         139.9663  138.0513  156.9713 C.3     1  UNL1        0.0901
     28 C         141.0951  137.0980  156.7122 C.3     1  UNL1        0.0900
     29 N         142.4484  137.6231  156.3344 N.3     1  UNL1       -0.2652
     30 C         142.6730  139.1014  156.2157 C.3     1  UNL1        0.0900
     31 C         141.5443  140.0547  156.4748 C.3     1  UNL1        0.0901
     32 C         143.5772  136.6698  156.0752 C.3     1  UNL1        0.1193
     33 C         143.3477  135.1908  156.1748 C.ar    1  UNL1        0.0823
     34 C         142.9282  134.2862  155.0542 C.ar    1  UNL1        0.0530
     35 S         142.8186  132.8931  155.5993 S.2     1  UNL1       -0.0643
     36 C         143.1704  132.9366  157.0568 C.ar    1  UNL1        0.1341
     37 N         143.4974  134.3567  157.4126 N.ar    1  UNL1       -0.2392
@<TRIPOS>BOND
     1    12    13    1
     2    13     8    1
     3     8     9    1
     4     8    10   am
     5    10    11    2
     6    10     2    1
     7     2     3   ar
     8     3     4   ar
     9     4     5   ar
    10     5     1    1
    11     1    14    1
    12    14    15   ar
    13    15    16   ar
    14    16    17   ar
    15    17    18   ar
    16    18    20    1
    17    20    21   am
    18    21    22    2
    19    21    24    1
    20    24    25    1
    21    18    19   ar
    22     1    26    1
    23    26    27    1
    24    27    28    1
    25    28    29    1
    26    29    32    1
    27    32    33    1
    28    33    34   ar
    29    34    35   ar
    30    35    36   ar
    31    36    37   ar
    32    29    30    1
    33    30    31    1
    34     5     6   ar
    35     6     7   ar
    36     7     2   ar
    37    19    14   ar
    38    31    26    1
    39    37    33   ar
    40    20    23    1
