@<TRIPOS>MOLECULE
*****
 34 38 0 0 0
SMALL
GASTEIGER

@<TRIPOS>ATOM
      1 O         138.4867  139.7055  169.7590 O.2     1  UNL1       -0.2699
      2 C         139.5367  140.2829  168.8567 C.2     1  UNL1        0.2490
      3 N         139.5396  139.9430  167.3957 N.am    1  UNL1       -0.2761
      4 C         138.4926  139.0256  166.8371 C.3     1  UNL1        0.0937
      5 C         138.4955  138.6857  165.3761 C.3     1  UNL1        0.0217
      6 C         139.5455  139.2631  164.4739 C.3     1  UNL1        0.0060
      7 C         138.4984  138.3457  163.9151 C.3     1  UNL1        0.0175
      8 C         138.5014  138.0057  162.4542 C.3     1  UNL1        0.0724
      9 N         139.5514  138.5832  161.5519 N.3     1  UNL1       -0.2689
     10 C         140.5984  139.5005  162.1106 C.3     1  UNL1        0.0724
     11 C         140.5955  139.8405  163.5716 C.3     1  UNL1        0.0175
     12 C         140.5925  140.1805  165.0325 C.3     1  UNL1        0.0217
     13 C         140.5896  140.5204  166.4934 C.3     1  UNL1        0.0937
     14 C         140.5837  141.2003  169.4154 C.ar    1  UNL1        0.0536
     15 C         140.3245  142.6757  169.4922 C.ar    1  UNL1        0.0054
     16 C         141.3716  143.5931  170.0509 C.ar    1  UNL1        0.0115
     17 C         142.6778  143.0351  170.5327 C.ar    1  UNL1        0.0577
     18 CL        143.7248  143.9524  171.0914 Cl      1  UNL1       -0.0822
     19 C         142.9371  141.5596  170.4559 C.ar    1  UNL1        0.0115
     20 C         141.8901  140.6423  169.8972 C.ar    1  UNL1        0.0054
     21 C         139.5543  138.2432  160.0909 C.3     1  UNL1        0.1022
     22 C         139.8538  139.3048  159.0744 C.ar    1  UNL1        0.0284
     23 C         140.9719  139.1099  158.0936 C.ar    1  UNL1        0.0001
     24 C         141.2714  140.1715  157.0771 C.ar    1  UNL1       -0.0001
     25 C         140.4529  141.4280  157.0414 C.ar    1  UNL1        0.0031
     26 C         139.3349  141.6229  158.0222 C.ar    1  UNL1        0.0372
     27 C         139.0353  140.5612  159.0388 C.ar    1  UNL1        0.1426
     28 O         137.9173  140.7561  160.0196 O.3     1  UNL1       -0.4538
     29 C         138.0996  141.6737  161.1921 C.ar    1  UNL1        0.1453
     30 C         137.3500  141.4204  162.4664 C.ar    1  UNL1        0.0375
     31 C         137.5323  142.3380  163.6389 C.ar    1  UNL1        0.0031
     32 C         138.4644  143.5089  163.5371 C.ar    1  UNL1        0.0002
     33 C         139.2141  143.7622  162.2628 C.ar    1  UNL1        0.0031
     34 C         139.0317  142.8446  161.0903 C.ar    1  UNL1        0.0375
@<TRIPOS>BOND
     1     1     2    2
     2     2    14    1
     3    14    15   ar
     4    15    16   ar
     5    16    17   ar
     6    17    18    1
     7    17    19   ar
     8    19    20   ar
     9     2     3   am
    10     3     4    1
    11     4     5    1
    12     5     6    1
    13     6     7    1
    14     7     8    1
    15     8     9    1
    16     9    21    1
    17    21    22    1
    18    22    23   ar
    19    23    24   ar
    20    24    25   ar
    21    25    26   ar
    22    26    27   ar
    23    27    28    1
    24    28    29    1
    25    29    30   ar
    26    30    31   ar
    27    31    32   ar
    28    32    33   ar
    29    33    34   ar
    30     9    10    1
    31    10    11    1
    32     6    12    1
    33    12    13    1
    34    20    14   ar
    35    13     3    1
    36    11     6    1
    37    27    22   ar
    38    34    29   ar
@<TRIPOS>MOLECULE
*****
 34 38 0 0 0
SMALL
GASTEIGER

@<TRIPOS>ATOM
      1 O         137.6471  140.2110  158.2534 O.2     1  UNL1       -0.2699
      2 C         138.9108  139.7507  158.9177 C.2     1  UNL1        0.2490
      3 N         139.0271  139.7836  160.4129 N.am    1  UNL1       -0.2761
      4 C         137.8798  140.2768  161.2437 C.3     1  UNL1        0.0937
      5 C         137.9961  140.3097  162.7388 C.3     1  UNL1        0.0217
      6 C         139.2598  139.8494  163.4030 C.3     1  UNL1        0.0060
      7 C         138.1124  140.3426  164.2340 C.3     1  UNL1        0.0175
      8 C         138.2288  140.3755  165.7290 C.3     1  UNL1        0.0724
      9 N         139.4925  139.9152  166.3933 N.3     1  UNL1       -0.2689
     10 C         140.6398  139.4221  165.5625 C.3     1  UNL1        0.0724
     11 C         140.5235  139.3892  164.0673 C.3     1  UNL1        0.0175
     12 C         140.4072  139.3563  162.5722 C.3     1  UNL1        0.0217
     13 C         140.2908  139.3234  161.0771 C.3     1  UNL1        0.0937
     14 C         140.0582  139.2576  158.0868 C.ar    1  UNL1        0.0536
     15 C         140.0713  137.8419  157.5913 C.ar    1  UNL1        0.0054
     16 C         141.2188  137.3487  156.7604 C.ar    1  UNL1        0.0115
     17 C         142.3530  138.2713  156.4251 C.ar    1  UNL1        0.0577
     18 CL        143.5003  137.7782  155.5943 Cl      1  UNL1       -0.0822
     19 C         142.3398  139.6870  156.9207 C.ar    1  UNL1        0.0115
     20 C         141.1924  140.1802  157.7515 C.ar    1  UNL1        0.0054
     21 C         139.6088  139.9481  167.8885 C.3     1  UNL1        0.1022
     22 C         140.8445  140.5031  168.5326 C.ar    1  UNL1        0.0284
     23 C         141.7625  139.5972  169.2985 C.ar    1  UNL1        0.0001
     24 C         142.9982  140.1522  169.9426 C.ar    1  UNL1       -0.0001
     25 C         143.3161  141.6131  169.8208 C.ar    1  UNL1        0.0031
     26 C         142.3981  142.5190  169.0548 C.ar    1  UNL1        0.0372
     27 C         141.1623  141.9639  168.4107 C.ar    1  UNL1        0.1426
     28 O         140.2443  142.8698  167.6447 O.3     1  UNL1       -0.4538
     29 C         140.4736  143.1067  166.1813 C.ar    1  UNL1        0.1453
     30 C         139.4219  143.7896  165.3583 C.ar    1  UNL1        0.0375
     31 C         139.6512  144.0264  163.8950 C.ar    1  UNL1        0.0031
     32 C         140.9323  143.5804  163.2548 C.ar    1  UNL1        0.0002
     33 C         141.9840  142.8975  164.0778 C.ar    1  UNL1        0.0031
     34 C         141.7547  142.6607  165.5411 C.ar    1  UNL1        0.0375
@<TRIPOS>BOND
     1     1     2    2
     2     2    14    1
     3    14    15   ar
     4    15    16   ar
     5    16    17   ar
     6    17    18    1
     7    17    19   ar
     8    19    20   ar
     9     2     3   am
    10     3     4    1
    11     4     5    1
    12     5     6    1
    13     6     7    1
    14     7     8    1
    15     8     9    1
    16     9    21    1
    17    21    22    1
    18    22    23   ar
    19    23    24   ar
    20    24    25   ar
    21    25    26   ar
    22    26    27   ar
    23    27    28    1
    24    28    29    1
    25    29    30   ar
    26    30    31   ar
    27    31    32   ar
    28    32    33   ar
    29    33    34   ar
    30     9    10    1
    31    10    11    1
    32     6    12    1
    33    12    13    1
    34    20    14   ar
    35    13     3    1
    36    11     6    1
    37    27    22   ar
    38    34    29   ar
@<TRIPOS>MOLECULE
*****
 34 38 0 0 0
SMALL
GASTEIGER

@<TRIPOS>ATOM
      1 O         143.3497  138.4326  168.2965 O.2     1  UNL1       -0.2699
      2 C         142.5314  139.5084  167.6460 C.2     1  UNL1        0.2490
      3 N         142.4886  139.6172  166.1505 N.am    1  UNL1       -0.2761
      4 C         143.2641  138.6504  165.3057 C.3     1  UNL1        0.0937
      5 C         143.2213  138.7592  163.8103 C.3     1  UNL1        0.0217
      6 C         142.4030  139.8350  163.1597 C.3     1  UNL1        0.0060
      7 C         143.1785  138.8681  162.3148 C.3     1  UNL1        0.0175
      8 C         143.1357  138.9769  160.8194 C.3     1  UNL1        0.0724
      9 N         142.3174  140.0527  160.1688 N.3     1  UNL1       -0.2689
     10 C         141.5420  141.0196  161.0136 C.3     1  UNL1        0.0724
     11 C         141.5848  140.9108  162.5091 C.3     1  UNL1        0.0175
     12 C         141.6276  140.8019  164.0045 C.3     1  UNL1        0.0217
     13 C         141.6704  140.6930  165.4999 C.3     1  UNL1        0.0937
     14 C         141.7560  140.4753  168.4908 C.ar    1  UNL1        0.0536
     15 C         142.3669  141.7888  168.8799 C.ar    1  UNL1        0.0054
     16 C         141.5914  142.7557  169.7248 C.ar    1  UNL1        0.0115
     17 C         140.2051  142.4091  170.1805 C.ar    1  UNL1        0.0577
     18 CL        139.4296  143.3760  171.0254 Cl      1  UNL1       -0.0822
     19 C         139.5941  141.0955  169.7915 C.ar    1  UNL1        0.0115
     20 C         140.3696  140.1287  168.9466 C.ar    1  UNL1        0.0054
     21 C         142.2747  140.1616  158.6733 C.3     1  UNL1        0.1022
     22 C         141.8414  138.9864  157.8479 C.ar    1  UNL1        0.0284
     23 C         142.8684  138.0959  157.2138 C.ar    1  UNL1        0.0001
     24 C         142.4351  136.9207  156.3884 C.ar    1  UNL1       -0.0001
     25 C         140.9748  136.6362  156.1970 C.ar    1  UNL1        0.0031
     26 C         139.9478  137.5268  156.8312 C.ar    1  UNL1        0.0372
     27 C         140.3811  138.7019  157.6566 C.ar    1  UNL1        0.1426
     28 O         139.3541  139.5925  158.2908 O.3     1  UNL1       -0.4538
     29 C         138.9672  139.3879  159.7255 C.ar    1  UNL1        0.1453
     30 C         138.0900  140.3898  160.4159 C.ar    1  UNL1        0.0375
     31 C         137.7031  140.1851  161.8506 C.ar    1  UNL1        0.0031
     32 C         138.1934  138.9786  162.5949 C.ar    1  UNL1        0.0002
     33 C         139.0707  137.9768  161.9045 C.ar    1  UNL1        0.0031
     34 C         139.4576  138.1814  160.4698 C.ar    1  UNL1        0.0375
@<TRIPOS>BOND
     1     1     2    2
     2     2    14    1
     3    14    15   ar
     4    15    16   ar
     5    16    17   ar
     6    17    18    1
     7    17    19   ar
     8    19    20   ar
     9     2     3   am
    10     3     4    1
    11     4     5    1
    12     5     6    1
    13     6     7    1
    14     7     8    1
    15     8     9    1
    16     9    21    1
    17    21    22    1
    18    22    23   ar
    19    23    24   ar
    20    24    25   ar
    21    25    26   ar
    22    26    27   ar
    23    27    28    1
    24    28    29    1
    25    29    30   ar
    26    30    31   ar
    27    31    32   ar
    28    32    33   ar
    29    33    34   ar
    30     9    10    1
    31    10    11    1
    32     6    12    1
    33    12    13    1
    34    20    14   ar
    35    13     3    1
    36    11     6    1
    37    27    22   ar
    38    34    29   ar
@<TRIPOS>MOLECULE
*****
 34 38 0 0 0
SMALL
GASTEIGER

@<TRIPOS>ATOM
      1 O         142.2030  141.4918  158.0673 O.2     1  UNL1       -0.2699
      2 C         142.0543  140.1489  158.7188 C.2     1  UNL1        0.2490
      3 N         142.1611  140.0226  160.2097 N.am    1  UNL1       -0.2761
      4 C         142.4165  141.2392  161.0491 C.3     1  UNL1        0.0937
      5 C         142.5233  141.1129  162.5399 C.3     1  UNL1        0.0217
      6 C         142.3746  139.7699  163.1913 C.3     1  UNL1        0.0060
      7 C         142.6300  140.9866  164.0308 C.3     1  UNL1        0.0175
      8 C         142.7368  140.8603  165.5216 C.3     1  UNL1        0.0724
      9 N         142.5881  139.5173  166.1731 N.3     1  UNL1       -0.2689
     10 C         142.3327  138.3007  165.3337 C.3     1  UNL1        0.0724
     11 C         142.2260  138.4270  163.8428 C.3     1  UNL1        0.0175
     12 C         142.1192  138.5533  162.3520 C.3     1  UNL1        0.0217
     13 C         142.0124  138.6796  160.8612 C.3     1  UNL1        0.0937
     14 C         141.7989  138.9323  157.8794 C.ar    1  UNL1        0.0536
     15 C         142.9490  138.0982  157.3981 C.ar    1  UNL1        0.0054
     16 C         142.6935  136.8815  156.5587 C.ar    1  UNL1        0.0115
     17 C         141.2880  136.4990  156.2007 C.ar    1  UNL1        0.0577
     18 CL        141.0326  135.2823  155.3613 Cl      1  UNL1       -0.0822
     19 C         140.1379  137.3331  156.6820 C.ar    1  UNL1        0.0115
     20 C         140.3934  138.5497  157.5213 C.ar    1  UNL1        0.0054
     21 C         142.6949  139.3910  167.6640 C.3     1  UNL1        0.1022
     22 C         142.1521  140.4735  168.5491 C.ar    1  UNL1        0.0284
     23 C         143.0875  141.4458  169.2047 C.ar    1  UNL1        0.0001
     24 C         142.5447  142.5283  170.0898 C.ar    1  UNL1       -0.0001
     25 C         141.0664  142.6385  170.3195 C.ar    1  UNL1        0.0031
     26 C         140.1310  141.6663  169.6639 C.ar    1  UNL1        0.0372
     27 C         140.6739  140.5837  168.7787 C.ar    1  UNL1        0.1426
     28 O         139.7385  139.6115  168.1232 O.3     1  UNL1       -0.4538
     29 C         139.3370  139.8063  166.6911 C.ar    1  UNL1        0.1453
     30 C         139.3468  141.1804  166.0897 C.ar    1  UNL1        0.0375
     31 C         138.9452  141.3752  164.6577 C.ar    1  UNL1        0.0031
     32 C         138.5338  140.1959  163.8270 C.ar    1  UNL1        0.0002
     33 C         138.5240  138.8218  164.4284 C.ar    1  UNL1        0.0031
     34 C         138.9256  138.6270  165.8604 C.ar    1  UNL1        0.0375
@<TRIPOS>BOND
     1     1     2    2
     2     2    14    1
     3    14    15   ar
     4    15    16   ar
     5    16    17   ar
     6    17    18    1
     7    17    19   ar
     8    19    20   ar
     9     2     3   am
    10     3     4    1
    11     4     5    1
    12     5     6    1
    13     6     7    1
    14     7     8    1
    15     8     9    1
    16     9    21    1
    17    21    22    1
    18    22    23   ar
    19    23    24   ar
    20    24    25   ar
    21    25    26   ar
    22    26    27   ar
    23    27    28    1
    24    28    29    1
    25    29    30   ar
    26    30    31   ar
    27    31    32   ar
    28    32    33   ar
    29    33    34   ar
    30     9    10    1
    31    10    11    1
    32     6    12    1
    33    12    13    1
    34    20    14   ar
    35    13     3    1
    36    11     6    1
    37    27    22   ar
    38    34    29   ar
@<TRIPOS>MOLECULE
*****
 34 38 0 0 0
SMALL
GASTEIGER

@<TRIPOS>ATOM
      1 O         139.2222  138.3948  158.3446 O.2     1  UNL1       -0.2699
      2 C         139.2512  139.7280  159.0315 C.2     1  UNL1        0.2490
      3 N         139.3190  139.7991  160.5284 N.am    1  UNL1       -0.2761
      4 C         139.3578  138.5371  161.3382 C.3     1  UNL1        0.0937
      5 C         139.4256  138.6082  162.8349 C.3     1  UNL1        0.0217
      6 C         139.4545  139.9414  163.5219 C.3     1  UNL1        0.0060
      7 C         139.4933  138.6793  164.3317 C.3     1  UNL1        0.0175
      8 C         139.5611  138.7505  165.8285 C.3     1  UNL1        0.0724
      9 N         139.5901  140.0836  166.5154 N.3     1  UNL1       -0.2689
     10 C         139.5513  141.3456  165.7056 C.3     1  UNL1        0.0724
     11 C         139.4835  141.2745  164.2088 C.3     1  UNL1        0.0175
     12 C         139.4158  141.2034  162.7121 C.3     1  UNL1        0.0217
     13 C         139.3480  141.1322  161.2153 C.3     1  UNL1        0.0937
     14 C         139.2124  140.9900  158.2217 C.ar    1  UNL1        0.0536
     15 C         140.4904  141.6798  157.8464 C.ar    1  UNL1        0.0054
     16 C         140.4515  142.9419  157.0365 C.ar    1  UNL1        0.0115
     17 C         139.1348  143.5140  156.6021 C.ar    1  UNL1        0.0577
     18 CL        139.0960  144.7760  155.7923 Cl      1  UNL1       -0.0822
     19 C         137.8568  142.8242  156.9775 C.ar    1  UNL1        0.0115
     20 C         137.8956  141.5622  157.7873 C.ar    1  UNL1        0.0054
     21 C         139.6579  140.1547  168.0123 C.3     1  UNL1        0.1022
     22 C         140.6113  141.1039  168.6756 C.ar    1  UNL1        0.0284
     23 C         140.0860  142.2858  169.4353 C.ar    1  UNL1        0.0001
     24 C         141.0394  143.2350  170.0987 C.ar    1  UNL1       -0.0001
     25 C         142.5182  143.0022  170.0023 C.ar    1  UNL1        0.0031
     26 C         143.0434  141.8203  169.2426 C.ar    1  UNL1        0.0372
     27 C         142.0899  140.8711  168.5793 C.ar    1  UNL1        0.1426
     28 O         142.6152  139.6892  167.8196 O.3     1  UNL1       -0.4538
     29 C         142.8956  139.8062  166.3506 C.ar    1  UNL1        0.1453
     30 C         143.0217  138.5701  165.5104 C.ar    1  UNL1        0.0375
     31 C         143.3022  138.6871  164.0415 C.ar    1  UNL1        0.0031
     32 C         143.4565  140.0403  163.4129 C.ar    1  UNL1        0.0002
     33 C         143.3303  141.2764  164.2531 C.ar    1  UNL1        0.0031
     34 C         143.0499  141.1594  165.7220 C.ar    1  UNL1        0.0375
@<TRIPOS>BOND
     1     1     2    2
     2     2    14    1
     3    14    15   ar
     4    15    16   ar
     5    16    17   ar
     6    17    18    1
     7    17    19   ar
     8    19    20   ar
     9     2     3   am
    10     3     4    1
    11     4     5    1
    12     5     6    1
    13     6     7    1
    14     7     8    1
    15     8     9    1
    16     9    21    1
    17    21    22    1
    18    22    23   ar
    19    23    24   ar
    20    24    25   ar
    21    25    26   ar
    22    26    27   ar
    23    27    28    1
    24    28    29    1
    25    29    30   ar
    26    30    31   ar
    27    31    32   ar
    28    32    33   ar
    29    33    34   ar
    30     9    10    1
    31    10    11    1
    32     6    12    1
    33    12    13    1
    34    20    14   ar
    35    13     3    1
    36    11     6    1
    37    27    22   ar
    38    34    29   ar
@<TRIPOS>MOLECULE
*****
 34 38 0 0 0
SMALL
GASTEIGER

@<TRIPOS>ATOM
      1 O         144.8346  137.5694  155.8041 O.2     1  UNL1       -0.2699
      2 C         143.4167  137.1634  156.0776 C.2     1  UNL1        0.2490
      3 N         142.5282  138.0491  156.8998 N.am    1  UNL1       -0.2761
      4 C         143.0575  139.3408  157.4486 C.3     1  UNL1        0.0937
      5 C         142.1690  140.2265  158.2708 C.3     1  UNL1        0.0217
      6 C         140.7511  139.8204  158.5442 C.3     1  UNL1        0.0060
      7 C         141.2804  141.1122  159.0931 C.3     1  UNL1        0.0175
      8 C         140.3919  141.9979  159.9153 C.3     1  UNL1        0.0724
      9 N         138.9740  141.5918  160.1887 N.3     1  UNL1       -0.2689
     10 C         138.4447  140.3001  159.6399 C.3     1  UNL1        0.0724
     11 C         139.3332  139.4144  158.8177 C.3     1  UNL1        0.0175
     12 C         140.2218  138.5287  157.9955 C.3     1  UNL1        0.0217
     13 C         141.1103  137.6431  157.1732 C.3     1  UNL1        0.0937
     14 C         142.8874  135.8717  155.5288 C.ar    1  UNL1        0.0536
     15 C         142.8081  134.6594  156.4086 C.ar    1  UNL1        0.0054
     16 C         142.2788  133.3676  155.8598 C.ar    1  UNL1        0.0115
     17 C         141.8286  133.2882  154.4311 C.ar    1  UNL1        0.0577
     18 CL        141.2993  131.9965  153.8823 Cl      1  UNL1       -0.0822
     19 C         141.9079  134.5004  153.5513 C.ar    1  UNL1        0.0115
     20 C         142.4372  135.7922  154.1001 C.ar    1  UNL1        0.0054
     21 C         138.0855  142.4776  161.0110 C.3     1  UNL1        0.1022
     22 C         138.5136  142.9022  162.3844 C.ar    1  UNL1        0.0284
     23 C         138.9025  144.3279  162.6415 C.ar    1  UNL1        0.0001
     24 C         139.3306  144.7525  164.0150 C.ar    1  UNL1       -0.0001
     25 C         139.3698  143.7513  165.1314 C.ar    1  UNL1        0.0031
     26 C         138.9809  142.3256  164.8743 C.ar    1  UNL1        0.0372
     27 C         138.5527  141.9011  163.5007 C.ar    1  UNL1        0.1426
     28 O         138.1638  140.4754  163.2436 O.3     1  UNL1       -0.4538
     29 C         139.1594  139.3750  163.4636 C.ar    1  UNL1        0.1453
     30 C         140.3572  139.2574  162.5685 C.ar    1  UNL1        0.0375
     31 C         141.3526  138.1571  162.7885 C.ar    1  UNL1        0.0031
     32 C         141.1502  137.1745  163.9036 C.ar    1  UNL1        0.0002
     33 C         139.9524  137.2921  164.7987 C.ar    1  UNL1        0.0031
     34 C         138.9569  138.3924  164.5787 C.ar    1  UNL1        0.0375
@<TRIPOS>BOND
     1     1     2    2
     2     2    14    1
     3    14    15   ar
     4    15    16   ar
     5    16    17   ar
     6    17    18    1
     7    17    19   ar
     8    19    20   ar
     9     2     3   am
    10     3     4    1
    11     4     5    1
    12     5     6    1
    13     6     7    1
    14     7     8    1
    15     8     9    1
    16     9    21    1
    17    21    22    1
    18    22    23   ar
    19    23    24   ar
    20    24    25   ar
    21    25    26   ar
    22    26    27   ar
    23    27    28    1
    24    28    29    1
    25    29    30   ar
    26    30    31   ar
    27    31    32   ar
    28    32    33   ar
    29    33    34   ar
    30     9    10    1
    31    10    11    1
    32     6    12    1
    33    12    13    1
    34    20    14   ar
    35    13     3    1
    36    11     6    1
    37    27    22   ar
    38    34    29   ar
@<TRIPOS>MOLECULE
*****
 34 38 0 0 0
SMALL
GASTEIGER

@<TRIPOS>ATOM
      1 O         143.3476  138.6512  167.6391 O.2     1  UNL1       -0.2699
      2 C         142.4412  139.7371  167.1399 C.2     1  UNL1        0.2490
      3 N         142.2685  139.9509  165.6652 N.am    1  UNL1       -0.2761
      4 C         143.0020  139.0788  164.6899 C.3     1  UNL1        0.0937
      5 C         142.8292  139.2926  163.2154 C.3     1  UNL1        0.0217
      6 C         141.9228  140.3785  162.7161 C.3     1  UNL1        0.0060
      7 C         142.6564  139.5064  161.7407 C.3     1  UNL1        0.0175
      8 C         142.4836  139.7202  160.2662 C.3     1  UNL1        0.0724
      9 N         141.5772  140.8061  159.7669 N.3     1  UNL1       -0.2689
     10 C         140.8437  141.6783  160.7422 C.3     1  UNL1        0.0724
     11 C         141.0165  141.4645  162.2169 C.3     1  UNL1        0.0175
     12 C         141.1893  141.2507  163.6914 C.3     1  UNL1        0.0217
     13 C         141.3621  141.0368  165.1660 C.3     1  UNL1        0.0937
     14 C         141.7077  140.6092  168.1152 C.ar    1  UNL1        0.0536
     15 C         140.3840  140.1692  168.6666 C.ar    1  UNL1        0.0054
     16 C         139.6504  141.0414  169.6419 C.ar    1  UNL1        0.0115
     17 C         140.2406  142.3536  170.0658 C.ar    1  UNL1        0.0577
     18 CL        139.5071  143.2257  171.0411 Cl      1  UNL1       -0.0822
     19 C         141.5644  142.7937  169.5144 C.ar    1  UNL1        0.0115
     20 C         142.2979  141.9215  168.5391 C.ar    1  UNL1        0.0054
     21 C         141.4045  141.0199  158.2922 C.3     1  UNL1        0.1022
     22 C         140.1112  141.5617  157.7594 C.ar    1  UNL1        0.0284
     23 C         140.0681  142.9282  157.1423 C.ar    1  UNL1        0.0001
     24 C         138.7748  143.4700  156.6095 C.ar    1  UNL1       -0.0001
     25 C         137.5247  142.6453  156.6937 C.ar    1  UNL1        0.0031
     26 C         137.5678  141.2789  157.3109 C.ar    1  UNL1        0.0372
     27 C         138.8612  140.7371  157.8437 C.ar    1  UNL1        0.1426
     28 O         138.9043  139.3706  158.4608 O.3     1  UNL1       -0.4538
     29 C         138.7019  139.2081  159.9382 C.ar    1  UNL1        0.1453
     30 C         139.3656  138.0771  160.6663 C.ar    1  UNL1        0.0375
     31 C         139.1632  137.9147  162.1437 C.ar    1  UNL1        0.0031
     32 C         138.2969  138.8833  162.8929 C.ar    1  UNL1        0.0002
     33 C         137.6331  140.0143  162.1648 C.ar    1  UNL1        0.0031
     34 C         137.8356  140.1767  160.6875 C.ar    1  UNL1        0.0375
@<TRIPOS>BOND
     1     1     2    2
     2     2    14    1
     3    14    15   ar
     4    15    16   ar
     5    16    17   ar
     6    17    18    1
     7    17    19   ar
     8    19    20   ar
     9     2     3   am
    10     3     4    1
    11     4     5    1
    12     5     6    1
    13     6     7    1
    14     7     8    1
    15     8     9    1
    16     9    21    1
    17    21    22    1
    18    22    23   ar
    19    23    24   ar
    20    24    25   ar
    21    25    26   ar
    22    26    27   ar
    23    27    28    1
    24    28    29    1
    25    29    30   ar
    26    30    31   ar
    27    31    32   ar
    28    32    33   ar
    29    33    34   ar
    30     9    10    1
    31    10    11    1
    32     6    12    1
    33    12    13    1
    34    20    14   ar
    35    13     3    1
    36    11     6    1
    37    27    22   ar
    38    34    29   ar
@<TRIPOS>MOLECULE
*****
 34 38 0 0 0
SMALL
GASTEIGER

@<TRIPOS>ATOM
      1 O         144.8431  139.0774  156.2003 O.2     1  UNL1       -0.2699
      2 C         144.7400  140.5101  156.6324 C.2     1  UNL1        0.2490
      3 N         143.9711  140.8667  157.8701 N.am    1  UNL1       -0.2761
      4 C         143.3054  139.7906  158.6755 C.3     1  UNL1        0.0937
      5 C         142.5365  140.1472  159.9131 C.3     1  UNL1        0.0217
      6 C         142.4334  141.5800  160.3452 C.3     1  UNL1        0.0060
      7 C         141.7676  140.5038  161.1507 C.3     1  UNL1        0.0175
      8 C         140.9988  140.8605  162.3883 C.3     1  UNL1        0.0724
      9 N         140.8956  142.2932  162.8204 N.3     1  UNL1       -0.2689
     10 C         141.5614  143.3693  162.0150 C.3     1  UNL1        0.0724
     11 C         142.3303  143.0127  160.7773 C.3     1  UNL1        0.0175
     12 C         143.0991  142.6560  159.5397 C.3     1  UNL1        0.0217
     13 C         143.8680  142.2994  158.3022 C.3     1  UNL1        0.0937
     14 C         145.4057  141.5862  155.8269 C.ar    1  UNL1        0.0536
     15 C         146.8310  141.9601  156.1078 C.ar    1  UNL1        0.0054
     16 C         147.4967  143.0362  155.3022 C.ar    1  UNL1        0.0115
     17 C         146.7372  143.7384  154.2159 C.ar    1  UNL1        0.0577
     18 CL        147.4029  144.8145  153.4105 Cl      1  UNL1       -0.0822
     19 C         145.3119  143.3645  153.9351 C.ar    1  UNL1        0.0115
     20 C         144.6462  142.2884  154.7406 C.ar    1  UNL1        0.0054
     21 C         140.1267  142.6498  164.0581 C.3     1  UNL1        0.1022
     22 C         139.7742  141.5856  165.0547 C.ar    1  UNL1        0.0284
     23 C         138.4747  140.8462  164.9343 C.ar    1  UNL1        0.0001
     24 C         138.1221  139.7821  165.9309 C.ar    1  UNL1       -0.0001
     25 C         139.0691  139.4573  167.0480 C.ar    1  UNL1        0.0031
     26 C         140.3687  140.1967  167.1683 C.ar    1  UNL1        0.0372
     27 C         140.7212  141.2609  166.1716 C.ar    1  UNL1        0.1426
     28 O         142.0207  142.0003  166.2920 O.3     1  UNL1       -0.4538
     29 C         143.1768  141.6337  165.4092 C.ar    1  UNL1        0.1453
     30 C         144.0526  142.7078  164.8357 C.ar    1  UNL1        0.0375
     31 C         145.2086  142.3412  163.9530 C.ar    1  UNL1        0.0031
     32 C         145.4887  140.9004  163.6438 C.ar    1  UNL1        0.0002
     33 C         144.6129  139.8262  164.2173 C.ar    1  UNL1        0.0031
     34 C         143.4569  140.1928  165.1001 C.ar    1  UNL1        0.0375
@<TRIPOS>BOND
     1     1     2    2
     2     2    14    1
     3    14    15   ar
     4    15    16   ar
     5    16    17   ar
     6    17    18    1
     7    17    19   ar
     8    19    20   ar
     9     2     3   am
    10     3     4    1
    11     4     5    1
    12     5     6    1
    13     6     7    1
    14     7     8    1
    15     8     9    1
    16     9    21    1
    17    21    22    1
    18    22    23   ar
    19    23    24   ar
    20    24    25   ar
    21    25    26   ar
    22    26    27   ar
    23    27    28    1
    24    28    29    1
    25    29    30   ar
    26    30    31   ar
    27    31    32   ar
    28    32    33   ar
    29    33    34   ar
    30     9    10    1
    31    10    11    1
    32     6    12    1
    33    12    13    1
    34    20    14   ar
    35    13     3    1
    36    11     6    1
    37    27    22   ar
    38    34    29   ar
@<TRIPOS>MOLECULE
*****
 34 38 0 0 0
SMALL
GASTEIGER

@<TRIPOS>ATOM
      1 O         142.8769  143.2492  155.9551 O.2     1  UNL1       -0.2699
      2 C         143.8058  142.2852  156.6317 C.2     1  UNL1        0.2490
      3 N         143.3308  141.4872  157.8097 N.am    1  UNL1       -0.2761
      4 C         141.9269  141.6533  158.3111 C.3     1  UNL1        0.0937
      5 C         141.4520  140.8554  159.4891 C.3     1  UNL1        0.0217
      6 C         142.3809  139.8914  160.1657 C.3     1  UNL1        0.0060
      7 C         140.9770  140.0575  160.6672 C.3     1  UNL1        0.0175
      8 C         140.5020  139.2596  161.8452 C.3     1  UNL1        0.0724
      9 N         141.4309  138.2955  162.5217 N.3     1  UNL1       -0.2689
     10 C         142.8348  138.1294  162.0203 C.3     1  UNL1        0.0724
     11 C         143.3098  138.9273  160.8422 C.3     1  UNL1        0.0175
     12 C         143.7848  139.7253  159.6642 C.3     1  UNL1        0.0217
     13 C         144.2597  140.5232  158.4863 C.3     1  UNL1        0.0937
     14 C         145.2097  142.1190  156.1302 C.ar    1  UNL1        0.0536
     15 C         146.3646  142.5878  156.9648 C.ar    1  UNL1        0.0054
     16 C         147.7685  142.4216  156.4633 C.ar    1  UNL1        0.0115
     17 C         148.0175  141.7868  155.1273 C.ar    1  UNL1        0.0577
     18 CL        149.4214  141.6207  154.6258 Cl      1  UNL1       -0.0822
     19 C         146.8626  141.3180  154.2927 C.ar    1  UNL1        0.0115
     20 C         145.4587  141.4841  154.7942 C.ar    1  UNL1        0.0054
     21 C         140.9559  137.4976  163.6998 C.3     1  UNL1        0.1022
     22 C         140.3321  138.1922  164.8738 C.ar    1  UNL1        0.0284
     23 C         138.8497  138.1158  165.0896 C.ar    1  UNL1        0.0001
     24 C         138.2259  138.8104  166.2636 C.ar    1  UNL1       -0.0001
     25 C         139.0846  139.5816  167.2218 C.ar    1  UNL1        0.0031
     26 C         140.5670  139.6581  167.0060 C.ar    1  UNL1        0.0372
     27 C         141.1908  138.9634  165.8319 C.ar    1  UNL1        0.1426
     28 O         142.6732  139.0398  165.6160 O.3     1  UNL1       -0.4538
     29 C         143.2493  140.1135  164.7411 C.ar    1  UNL1        0.1453
     30 C         144.6953  140.0631  164.3457 C.ar    1  UNL1        0.0375
     31 C         145.2714  141.1367  163.4707 C.ar    1  UNL1        0.0031
     32 C         144.4014  142.2607  162.9912 C.ar    1  UNL1        0.0002
     33 C         142.9553  142.3110  163.3867 C.ar    1  UNL1        0.0031
     34 C         142.3793  141.2374  164.2616 C.ar    1  UNL1        0.0375
@<TRIPOS>BOND
     1     1     2    2
     2     2    14    1
     3    14    15   ar
     4    15    16   ar
     5    16    17   ar
     6    17    18    1
     7    17    19   ar
     8    19    20   ar
     9     2     3   am
    10     3     4    1
    11     4     5    1
    12     5     6    1
    13     6     7    1
    14     7     8    1
    15     8     9    1
    16     9    21    1
    17    21    22    1
    18    22    23   ar
    19    23    24   ar
    20    24    25   ar
    21    25    26   ar
    22    26    27   ar
    23    27    28    1
    24    28    29    1
    25    29    30   ar
    26    30    31   ar
    27    31    32   ar
    28    32    33   ar
    29    33    34   ar
    30     9    10    1
    31    10    11    1
    32     6    12    1
    33    12    13    1
    34    20    14   ar
    35    13     3    1
    36    11     6    1
    37    27    22   ar
    38    34    29   ar
