@<TRIPOS>MOLECULE
*****
 29 31 0 0 0
SMALL
GASTEIGER

@<TRIPOS>ATOM
      1 C         144.7429  139.9896  163.1610 C.3     1  UNL1        0.0937
      2 N         144.0713  140.0932  164.4982 N.3     1  UNL1       -0.2683
      3 C         143.7076  141.4387  165.0526 C.3     1  UNL1        0.0939
      4 C         143.0359  141.5423  166.3898 C.3     1  UNL1        0.1081
      5 N         142.7279  140.3004  167.1726 N.pl3   1  UNL1       -0.3049
      6 C         143.0915  138.9549  166.6182 C.3     1  UNL1        0.1081
      7 C         143.7632  138.8512  165.2809 C.3     1  UNL1        0.0939
      8 C         142.0562  140.4039  168.5097 C.ar    1  UNL1        0.0436
      9 C         142.8729  140.6608  169.7415 C.ar    1  UNL1        0.0142
     10 C         142.2013  140.7644  171.0786 C.ar    1  UNL1        0.0009
     11 C         140.7129  140.6111  171.1842 C.ar    1  UNL1       -0.0045
     12 C         139.8961  140.3542  169.9526 C.ar    1  UNL1       -0.0246
     13 C         138.4077  140.2008  170.0581 C.3     1  UNL1        0.0307
     14 C         140.5678  140.2506  168.6153 C.ar    1  UNL1       -0.0125
     15 C         139.7511  139.9937  167.3837 C.3     1  UNL1        0.0320
     16 C         144.8353  141.1948  162.2728 C.3     1  UNL1        0.1070
     17 C         143.4785  143.3627  161.8150 C.2     1  UNL1        0.2637
     18 O         144.6225  144.1868  162.3271 O.2     1  UNL1       -0.2685
     19 N         143.5849  141.8667  161.7878 N.am    1  UNL1       -0.2982
     20 H         142.8341  141.3259  161.4518 H       1  UNL1        0.1498
     21 C         140.8864  145.1874  159.4272 C.ar    1  UNL1        0.1898
     22 N         139.7275  145.3784  160.3601 N.ar    1  UNL1       -0.2256
     23 C         139.8189  144.8975  161.7780 C.ar    1  UNL1        0.0632
     24 C         138.6599  145.0885  162.7109 C.3     1  UNL1        0.0522
     25 C         141.0692  144.2256  162.2630 C.ar    1  UNL1        0.0386
     26 C         142.2281  144.0346  161.3301 C.ar    1  UNL1        0.1377
     27 N         142.1367  144.5155  159.9122 N.ar    1  UNL1       -0.2166
     28 C         140.1921  144.7872  156.9559 C.3     1  UNL1        0.0772
     29 S         140.7951  145.6684  158.0094 S.3     1  UNL1       -0.0748
@<TRIPOS>BOND
     1    28    29    1
     2    29    21    1
     3    21    22   ar
     4    22    23   ar
     5    23    24    1
     6    23    25   ar
     7    25    26   ar
     8    26    17    1
     9    17    18    2
    10    17    19   am
    11    19    16    1
    12    16     1    1
    13     1     2    1
    14     2     3    1
    15     3     4    1
    16     4     5    1
    17     5     8    1
    18     8     9   ar
    19     9    10   ar
    20    10    11   ar
    21    11    12   ar
    22    12    13    1
    23    12    14   ar
    24    14    15    1
    25     5     6    1
    26     6     7    1
    27    26    27   ar
    28    27    21   ar
    29     7     2    1
    30    14     8   ar
    31    19    20    1
@<TRIPOS>MOLECULE
*****
 29 31 0 0 0
SMALL
GASTEIGER

@<TRIPOS>ATOM
      1 C         138.1401  138.1957  162.0462 C.3     1  UNL1        0.0937
      2 N         138.5968  138.7201  163.3753 N.3     1  UNL1       -0.2683
      3 C         138.1791  140.0887  163.8253 C.3     1  UNL1        0.0939
      4 C         138.6359  140.6131  165.1544 C.3     1  UNL1        0.1081
      5 N         139.5103  139.7689  166.0334 N.pl3   1  UNL1       -0.3049
      6 C         139.9280  138.4003  165.5834 C.3     1  UNL1        0.1081
      7 C         139.4713  137.8759  164.2543 C.3     1  UNL1        0.0939
      8 C         139.9670  140.2933  167.3624 C.ar    1  UNL1        0.0436
      9 C         139.1365  140.0545  168.5886 C.ar    1  UNL1        0.0142
     10 C         139.5932  140.5789  169.9176 C.ar    1  UNL1        0.0009
     11 C         140.8805  141.3420  170.0206 C.ar    1  UNL1       -0.0045
     12 C         141.7110  141.5808  168.7946 C.ar    1  UNL1       -0.0246
     13 C         142.9983  142.3439  168.8976 C.3     1  UNL1        0.0307
     14 C         141.2543  141.0564  167.4655 C.ar    1  UNL1       -0.0125
     15 C         142.0848  141.2952  166.2394 C.3     1  UNL1        0.0320
     16 C         138.9835  138.4117  160.8248 C.3     1  UNL1        0.1070
     17 C         141.5052  138.8733  161.2469 C.2     1  UNL1        0.2637
     18 O         141.7150  137.4252  161.5771 O.2     1  UNL1       -0.2685
     19 N         140.1395  139.3665  160.8707 N.am    1  UNL1       -0.2982
     20 H         140.0018  140.3169  160.6540 H       1  UNL1        0.1498
     21 C         144.1424  141.6250  160.1407 C.ar    1  UNL1        0.1898
     22 N         144.9730  141.7378  161.3846 N.ar    1  UNL1       -0.2256
     23 C         144.6477  140.8958  162.5826 C.ar    1  UNL1        0.0632
     24 C         145.4783  141.0087  163.8266 C.3     1  UNL1        0.0522
     25 C         143.4918  139.9410  162.5367 C.ar    1  UNL1        0.0386
     26 C         142.6612  139.8282  161.2928 C.ar    1  UNL1        0.1377
     27 N         142.9865  140.6702  160.0948 N.ar    1  UNL1       -0.2166
     28 C         144.4722  141.8537  157.5738 C.3     1  UNL1        0.0772
     29 S         144.4677  142.4670  158.9427 S.3     1  UNL1       -0.0748
@<TRIPOS>BOND
     1    28    29    1
     2    29    21    1
     3    21    22   ar
     4    22    23   ar
     5    23    24    1
     6    23    25   ar
     7    25    26   ar
     8    26    17    1
     9    17    18    2
    10    17    19   am
    11    19    16    1
    12    16     1    1
    13     1     2    1
    14     2     3    1
    15     3     4    1
    16     4     5    1
    17     5     8    1
    18     8     9   ar
    19     9    10   ar
    20    10    11   ar
    21    11    12   ar
    22    12    13    1
    23    12    14   ar
    24    14    15    1
    25     5     6    1
    26     6     7    1
    27    26    27   ar
    28    27    21   ar
    29     7     2    1
    30    14     8   ar
    31    19    20    1
@<TRIPOS>MOLECULE
*****
 29 31 0 0 0
SMALL
GASTEIGER

@<TRIPOS>ATOM
      1 C         140.0885  137.5874  163.2825 C.3     1  UNL1        0.0937
      2 N         140.1842  138.3266  164.5841 N.3     1  UNL1       -0.2683
      3 C         138.9366  138.6944  165.3313 C.3     1  UNL1        0.0939
      4 C         139.0322  139.4336  166.6329 C.3     1  UNL1        0.1081
      5 N         140.3755  139.8049  167.1876 N.pl3   1  UNL1       -0.3049
      6 C         141.6232  139.4371  166.4406 C.3     1  UNL1        0.1081
      7 C         141.5275  138.6979  165.1388 C.3     1  UNL1        0.0939
      8 C         140.4712  140.5441  168.4893 C.ar    1  UNL1        0.0436
      9 C         140.6087  139.7839  169.7751 C.ar    1  UNL1        0.0142
     10 C         140.7044  140.5231  171.0768 C.ar    1  UNL1        0.0009
     11 C         140.6626  142.0224  171.0928 C.ar    1  UNL1       -0.0045
     12 C         140.5251  142.7826  169.8070 C.ar    1  UNL1       -0.0246
     13 C         140.4834  144.2819  169.8229 C.3     1  UNL1        0.0307
     14 C         140.4294  142.0434  168.5052 C.ar    1  UNL1       -0.0125
     15 C         140.2920  142.8036  167.2195 C.3     1  UNL1        0.0320
     16 C         139.7992  138.3353  162.0148 C.3     1  UNL1        0.1070
     17 C         139.4716  140.9126  162.0283 C.2     1  UNL1        0.2637
     18 O         138.0408  140.7286  162.4394 O.2     1  UNL1       -0.2685
     19 N         140.3508  139.7160  161.8161 N.am    1  UNL1       -0.2982
     20 H         141.2899  139.8368  161.5463 H       1  UNL1        0.1498
     21 C         140.4413  144.3503  160.2985 C.ar    1  UNL1        0.1898
     22 N         141.1263  145.0546  161.4319 N.ar    1  UNL1       -0.2256
     23 C         141.2598  144.3783  162.7641 C.ar    1  UNL1        0.0632
     24 C         141.9449  145.0827  163.8975 C.3     1  UNL1        0.0522
     25 C         140.7082  142.9977  162.9629 C.ar    1  UNL1        0.0386
     26 C         140.0232  142.2933  161.8295 C.ar    1  UNL1        0.1377
     27 N         139.8897  142.9697  160.4973 N.ar    1  UNL1       -0.2166
     28 C         141.5287  145.5299  158.2550 C.3     1  UNL1        0.0772
     29 S         140.3078  145.0266  158.9663 S.3     1  UNL1       -0.0748
@<TRIPOS>BOND
     1    28    29    1
     2    29    21    1
     3    21    22   ar
     4    22    23   ar
     5    23    24    1
     6    23    25   ar
     7    25    26   ar
     8    26    17    1
     9    17    18    2
    10    17    19   am
    11    19    16    1
    12    16     1    1
    13     1     2    1
    14     2     3    1
    15     3     4    1
    16     4     5    1
    17     5     8    1
    18     8     9   ar
    19     9    10   ar
    20    10    11   ar
    21    11    12   ar
    22    12    13    1
    23    12    14   ar
    24    14    15    1
    25     5     6    1
    26     6     7    1
    27    26    27   ar
    28    27    21   ar
    29     7     2    1
    30    14     8   ar
    31    19    20    1
@<TRIPOS>MOLECULE
*****
 29 31 0 0 0
SMALL
GASTEIGER

@<TRIPOS>ATOM
      1 C         141.1149  137.2678  163.3934 C.3     1  UNL1        0.0937
      2 N         141.0408  138.0560  164.6674 N.3     1  UNL1       -0.2683
      3 C         142.2995  138.4276  165.3938 C.3     1  UNL1        0.0939
      4 C         142.2253  139.2157  166.6679 C.3     1  UNL1        0.1081
      5 N         140.8925  139.6324  167.2156 N.pl3   1  UNL1       -0.3049
      6 C         139.6338  139.2609  166.4892 C.3     1  UNL1        0.1081
      7 C         139.7079  138.4727  165.2151 C.3     1  UNL1        0.0939
      8 C         140.8183  140.4206  168.4896 C.ar    1  UNL1        0.0436
      9 C         140.9359  139.7218  169.8118 C.ar    1  UNL1        0.0142
     10 C         140.8618  140.5100  171.0858 C.ar    1  UNL1        0.0009
     11 C         140.6700  141.9969  171.0378 C.ar    1  UNL1       -0.0045
     12 C         140.5524  142.6956  169.7158 C.ar    1  UNL1       -0.0246
     13 C         140.3606  144.1825  169.6678 C.3     1  UNL1        0.0307
     14 C         140.6265  141.9075  168.4416 C.ar    1  UNL1       -0.0125
     15 C         140.5089  142.6062  167.1196 C.3     1  UNL1        0.0320
     16 C         141.5410  137.9378  162.1208 C.3     1  UNL1        0.1070
     17 C         139.8886  139.8545  161.5327 C.2     1  UNL1        0.2637
     18 O         138.7867  138.8516  161.3600 O.2     1  UNL1       -0.2685
     19 N         141.2658  139.3977  161.9131 N.am    1  UNL1       -0.2982
     20 H         141.9890  140.0560  162.0265 H       1  UNL1        0.1498
     21 C         138.7078  143.5819  162.2132 C.ar    1  UNL1        0.1898
     22 N         139.0628  144.2340  160.9099 N.ar    1  UNL1       -0.2256
     23 C         139.6930  143.4264  159.8142 C.ar    1  UNL1        0.0632
     24 C         140.0479  144.0787  158.5108 C.3     1  UNL1        0.0522
     25 C         139.9683  141.9666  160.0218 C.ar    1  UNL1        0.0386
     26 C         139.6133  141.3144  161.3251 C.ar    1  UNL1        0.1377
     27 N         138.9831  142.1221  162.4208 N.ar    1  UNL1       -0.2166
     28 C         138.8717  144.7440  164.5310 C.3     1  UNL1        0.0772
     29 S         138.0776  144.3895  163.3089 S.3     1  UNL1       -0.0748
@<TRIPOS>BOND
     1    28    29    1
     2    29    21    1
     3    21    22   ar
     4    22    23   ar
     5    23    24    1
     6    23    25   ar
     7    25    26   ar
     8    26    17    1
     9    17    18    2
    10    17    19   am
    11    19    16    1
    12    16     1    1
    13     1     2    1
    14     2     3    1
    15     3     4    1
    16     4     5    1
    17     5     8    1
    18     8     9   ar
    19     9    10   ar
    20    10    11   ar
    21    11    12   ar
    22    12    13    1
    23    12    14   ar
    24    14    15    1
    25     5     6    1
    26     6     7    1
    27    26    27   ar
    28    27    21   ar
    29     7     2    1
    30    14     8   ar
    31    19    20    1
@<TRIPOS>MOLECULE
*****
 29 31 0 0 0
SMALL
GASTEIGER

@<TRIPOS>ATOM
      1 C         145.5900  141.7634  163.2180 C.3     1  UNL1        0.0937
      2 N         144.5686  141.5257  164.2904 N.3     1  UNL1       -0.2683
      3 C         144.1785  140.1245  164.6575 C.3     1  UNL1        0.0939
      4 C         143.1571  139.8869  165.7299 C.3     1  UNL1        0.1081
      5 N         142.5257  141.0504  166.4354 N.pl3   1  UNL1       -0.3049
      6 C         142.9157  142.4515  166.0684 C.3     1  UNL1        0.1081
      7 C         143.9372  142.6892  164.9959 C.3     1  UNL1        0.0939
      8 C         141.5043  140.8127  167.5079 C.ar    1  UNL1        0.0436
      9 C         140.1877  140.1820  167.1632 C.ar    1  UNL1        0.0142
     10 C         139.1662  139.9444  168.2356 C.ar    1  UNL1        0.0009
     11 C         139.4614  140.3374  169.6528 C.ar    1  UNL1       -0.0045
     12 C         140.7779  140.9681  169.9975 C.ar    1  UNL1       -0.0246
     13 C         141.0731  141.3612  171.4147 C.3     1  UNL1        0.0307
     14 C         141.7994  141.2058  168.9250 C.ar    1  UNL1       -0.0125
     15 C         143.1160  141.8365  169.2698 C.3     1  UNL1        0.0320
     16 C         145.1537  142.1945  161.8491 C.3     1  UNL1        0.1070
     17 C         142.8451  143.3507  161.5599 C.2     1  UNL1        0.2637
     18 O         143.4343  144.6459  162.0346 O.2     1  UNL1       -0.2685
     19 N         143.7048  142.1250  161.4671 N.am    1  UNL1       -0.2982
     20 H         143.3181  141.2749  161.1556 H       1  UNL1        0.1498
     21 C         138.8937  143.1373  161.8610 C.ar    1  UNL1        0.1898
     22 N         138.4985  143.1423  160.4140 N.ar    1  UNL1       -0.2256
     23 C         139.5521  143.2168  159.3490 C.ar    1  UNL1        0.0632
     24 C         139.1568  143.2217  157.9020 C.3     1  UNL1        0.0522
     25 C         141.0010  143.2862  159.7309 C.ar    1  UNL1        0.0386
     26 C         141.3962  143.2812  161.1779 C.ar    1  UNL1        0.1377
     27 N         140.3425  143.2068  162.2429 N.ar    1  UNL1       -0.2166
     28 C         137.8246  144.0700  164.0374 C.3     1  UNL1        0.0772
     29 S         137.8400  143.0628  162.9260 S.3     1  UNL1       -0.0748
@<TRIPOS>BOND
     1    28    29    1
     2    29    21    1
     3    21    22   ar
     4    22    23   ar
     5    23    24    1
     6    23    25   ar
     7    25    26   ar
     8    26    17    1
     9    17    18    2
    10    17    19   am
    11    19    16    1
    12    16     1    1
    13     1     2    1
    14     2     3    1
    15     3     4    1
    16     4     5    1
    17     5     8    1
    18     8     9   ar
    19     9    10   ar
    20    10    11   ar
    21    11    12   ar
    22    12    13    1
    23    12    14   ar
    24    14    15    1
    25     5     6    1
    26     6     7    1
    27    26    27   ar
    28    27    21   ar
    29     7     2    1
    30    14     8   ar
    31    19    20    1
@<TRIPOS>MOLECULE
*****
 29 31 0 0 0
SMALL
GASTEIGER

@<TRIPOS>ATOM
      1 C         138.1136  138.3819  161.8835 C.3     1  UNL1        0.0937
      2 N         138.5474  138.8600  163.2375 N.3     1  UNL1       -0.2683
      3 C         139.4230  137.9937  164.0937 C.3     1  UNL1        0.0939
      4 C         139.8568  138.4718  165.4477 C.3     1  UNL1        0.1081
      5 N         139.4151  139.8161  165.9454 N.pl3   1  UNL1       -0.3049
      6 C         138.5396  140.6823  165.0892 C.3     1  UNL1        0.1081
      7 C         138.1058  140.2043  163.7352 C.3     1  UNL1        0.0939
      8 C         139.8490  140.2942  167.2994 C.ar    1  UNL1        0.0436
      9 C         139.0391  139.9455  168.5129 C.ar    1  UNL1        0.0142
     10 C         139.4730  140.4235  169.8668 C.ar    1  UNL1        0.0009
     11 C         140.7166  141.2503  170.0073 C.ar    1  UNL1       -0.0045
     12 C         141.5265  141.5990  168.7939 C.ar    1  UNL1       -0.0246
     13 C         142.7702  142.4258  168.9343 C.3     1  UNL1        0.0307
     14 C         141.0927  141.1209  167.4398 C.ar    1  UNL1       -0.0125
     15 C         141.9025  141.4696  166.2264 C.3     1  UNL1        0.0320
     16 C         139.0893  138.3697  160.7444 C.3     1  UNL1        0.1070
     17 C         141.5636  139.1038  161.0431 C.2     1  UNL1        0.2637
     18 O         141.9147  137.7260  161.5209 O.2     1  UNL1       -0.2685
     19 N         140.1509  139.4257  160.6548 N.am    1  UNL1       -0.2982
     20 H         139.9205  140.3300  160.3411 H       1  UNL1        0.1498
     21 C         144.5870  141.4753  162.0353 C.ar    1  UNL1        0.1898
     22 N         144.7484  142.2715  160.7744 N.ar    1  UNL1       -0.2256
     23 C         143.8482  142.0118  159.6030 C.ar    1  UNL1        0.0632
     24 C         144.0096  142.8081  158.3421 C.3     1  UNL1        0.0522
     25 C         142.7866  140.9559  159.6926 C.ar    1  UNL1        0.0386
     26 C         142.6252  140.1597  160.9535 C.ar    1  UNL1        0.1377
     27 N         143.5254  140.4194  162.1249 N.ar    1  UNL1       -0.2166
     28 C         144.9886  142.5360  164.3728 C.3     1  UNL1        0.0772
     29 S         145.4873  141.7350  163.2067 S.3     1  UNL1       -0.0748
@<TRIPOS>BOND
     1    28    29    1
     2    29    21    1
     3    21    22   ar
     4    22    23   ar
     5    23    24    1
     6    23    25   ar
     7    25    26   ar
     8    26    17    1
     9    17    18    2
    10    17    19   am
    11    19    16    1
    12    16     1    1
    13     1     2    1
    14     2     3    1
    15     3     4    1
    16     4     5    1
    17     5     8    1
    18     8     9   ar
    19     9    10   ar
    20    10    11   ar
    21    11    12   ar
    22    12    13    1
    23    12    14   ar
    24    14    15    1
    25     5     6    1
    26     6     7    1
    27    26    27   ar
    28    27    21   ar
    29     7     2    1
    30    14     8   ar
    31    19    20    1
@<TRIPOS>MOLECULE
*****
 29 31 0 0 0
SMALL
GASTEIGER

@<TRIPOS>ATOM
      1 C         145.5156  141.8496  163.1830 C.3     1  UNL1        0.0937
      2 N         144.5294  141.5954  164.2842 N.3     1  UNL1       -0.2683
      3 C         144.0977  140.1930  164.5955 C.3     1  UNL1        0.0939
      4 C         143.1115  139.9388  165.6968 C.3     1  UNL1        0.1081
      5 N         142.5570  141.0870  166.4868 N.pl3   1  UNL1       -0.3049
      6 C         142.9886  142.4894  166.1756 C.3     1  UNL1        0.1081
      7 C         143.9749  142.7436  165.0743 C.3     1  UNL1        0.0939
      8 C         141.5708  140.8328  167.5880 C.ar    1  UNL1        0.0436
      9 C         140.2318  140.2347  167.2725 C.ar    1  UNL1        0.0142
     10 C         139.2457  139.9805  168.3738 C.ar    1  UNL1        0.0009
     11 C         139.5984  140.3243  169.7906 C.ar    1  UNL1       -0.0045
     12 C         140.9373  140.9224  170.1061 C.ar    1  UNL1       -0.0246
     13 C         141.2901  141.2662  171.5230 C.3     1  UNL1        0.0307
     14 C         141.9236  141.1766  169.0049 C.ar    1  UNL1       -0.0125
     15 C         143.2625  141.7746  169.3204 C.3     1  UNL1        0.0320
     16 C         145.0303  142.1276  161.7912 C.3     1  UNL1        0.1070
     17 C         142.7411  143.3492  161.6611 C.2     1  UNL1        0.2637
     18 O         143.3906  144.6166  162.1322 O.2     1  UNL1       -0.2685
     19 N         143.5609  142.1047  161.4906 N.am    1  UNL1       -0.2982
     20 H         143.1346  141.2730  161.1814 H       1  UNL1        0.1498
     21 C         139.3237  142.9476  159.6836 C.ar    1  UNL1        0.1898
     22 N         138.3329  143.2807  160.7593 N.ar    1  UNL1       -0.2256
     23 C         138.8114  143.6366  162.1356 C.ar    1  UNL1        0.0632
     24 C         137.8205  143.9697  163.2114 C.3     1  UNL1        0.0522
     25 C         140.2808  143.6595  162.4363 C.ar    1  UNL1        0.0386
     26 C         141.2716  143.3264  161.3605 C.ar    1  UNL1        0.1377
     27 N         140.7931  142.9705  159.9842 N.ar    1  UNL1       -0.2166
     28 C         139.3331  143.3673  157.1196 C.3     1  UNL1        0.0772
     29 S         138.8452  142.5917  158.3072 S.3     1  UNL1       -0.0748
@<TRIPOS>BOND
     1    28    29    1
     2    29    21    1
     3    21    22   ar
     4    22    23   ar
     5    23    24    1
     6    23    25   ar
     7    25    26   ar
     8    26    17    1
     9    17    18    2
    10    17    19   am
    11    19    16    1
    12    16     1    1
    13     1     2    1
    14     2     3    1
    15     3     4    1
    16     4     5    1
    17     5     8    1
    18     8     9   ar
    19     9    10   ar
    20    10    11   ar
    21    11    12   ar
    22    12    13    1
    23    12    14   ar
    24    14    15    1
    25     5     6    1
    26     6     7    1
    27    26    27   ar
    28    27    21   ar
    29     7     2    1
    30    14     8   ar
    31    19    20    1
@<TRIPOS>MOLECULE
*****
 29 31 0 0 0
SMALL
GASTEIGER

@<TRIPOS>ATOM
      1 C         138.0405  138.3017  161.9437 C.3     1  UNL1        0.0937
      2 N         138.5307  138.7916  163.2740 N.3     1  UNL1       -0.2683
      3 C         139.4937  137.9618  164.0704 C.3     1  UNL1        0.0939
      4 C         139.9838  138.4517  165.4007 C.3     1  UNL1        0.1081
      5 N         139.5110  139.7713  165.9346 N.pl3   1  UNL1       -0.3049
      6 C         138.5480  140.6010  165.1383 C.3     1  UNL1        0.1081
      7 C         138.0578  140.1112  163.8079 C.3     1  UNL1        0.0939
      8 C         140.0011  140.2612  167.2649 C.ar    1  UNL1        0.0436
      9 C         139.2114  139.9739  168.5074 C.ar    1  UNL1        0.0142
     10 C         139.7015  140.4637  169.8377 C.ar    1  UNL1        0.0009
     11 C         140.9814  141.2410  169.9256 C.ar    1  UNL1       -0.0045
     12 C         141.7712  141.5284  168.6832 C.ar    1  UNL1       -0.0246
     13 C         143.0511  142.3056  168.7710 C.3     1  UNL1        0.0307
     14 C         141.2810  141.0385  167.3528 C.ar    1  UNL1       -0.0125
     15 C         142.0708  141.3258  166.1103 C.3     1  UNL1        0.0320
     16 C         138.7174  138.7515  160.6830 C.3     1  UNL1        0.1070
     17 C         140.6939  140.4021  161.0283 C.2     1  UNL1        0.2637
     18 O         141.5368  139.2813  161.5607 O.2     1  UNL1       -0.2685
     19 N         139.2843  140.1372  160.5894 N.am    1  UNL1       -0.2982
     20 H         138.7311  140.8728  160.2400 H       1  UNL1        0.1498
     21 C         142.9855  143.5701  161.7083 C.ar    1  UNL1        0.1898
     22 N         142.3945  144.5589  160.7476 N.ar    1  UNL1       -0.2256
     23 C         141.2366  144.1621  159.8805 C.ar    1  UNL1        0.0632
     24 C         140.6456  145.1510  158.9198 C.3     1  UNL1        0.0522
     25 C         140.6697  142.7766  159.9740 C.ar    1  UNL1        0.0386
     26 C         141.2608  141.7877  160.9347 C.ar    1  UNL1        0.1377
     27 N         142.4187  142.1845  161.8018 N.ar    1  UNL1       -0.2166
     28 C         144.1189  143.6639  164.0442 C.3     1  UNL1        0.0772
     29 S         144.1434  143.9669  162.5754 S.3     1  UNL1       -0.0748
@<TRIPOS>BOND
     1    28    29    1
     2    29    21    1
     3    21    22   ar
     4    22    23   ar
     5    23    24    1
     6    23    25   ar
     7    25    26   ar
     8    26    17    1
     9    17    18    2
    10    17    19   am
    11    19    16    1
    12    16     1    1
    13     1     2    1
    14     2     3    1
    15     3     4    1
    16     4     5    1
    17     5     8    1
    18     8     9   ar
    19     9    10   ar
    20    10    11   ar
    21    11    12   ar
    22    12    13    1
    23    12    14   ar
    24    14    15    1
    25     5     6    1
    26     6     7    1
    27    26    27   ar
    28    27    21   ar
    29     7     2    1
    30    14     8   ar
    31    19    20    1
@<TRIPOS>MOLECULE
*****
 29 31 0 0 0
SMALL
GASTEIGER

@<TRIPOS>ATOM
      1 C         137.7638  138.9692  161.8250 C.3     1  UNL1        0.0937
      2 N         138.3219  139.3321  163.1692 N.3     1  UNL1       -0.2683
      3 C         137.9786  140.6527  163.7923 C.3     1  UNL1        0.0939
      4 C         138.5367  141.0155  165.1364 C.3     1  UNL1        0.1081
      5 N         139.4382  140.0578  165.8576 N.pl3   1  UNL1       -0.3049
      6 C         139.7815  138.7372  165.2346 C.3     1  UNL1        0.1081
      7 C         139.2234  138.3743  163.8904 C.3     1  UNL1        0.0939
      8 C         139.9963  140.4206  167.2017 C.ar    1  UNL1        0.0436
      9 C         139.2569  140.0370  168.4493 C.ar    1  UNL1        0.0142
     10 C         139.8150  140.3999  169.7934 C.ar    1  UNL1        0.0009
     11 C         141.1125  141.1463  169.8901 C.ar    1  UNL1       -0.0045
     12 C         141.8519  141.5299  168.6427 C.ar    1  UNL1       -0.0246
     13 C         143.1494  142.2763  168.7394 C.3     1  UNL1        0.0307
     14 C         141.2938  141.1671  167.2985 C.ar    1  UNL1       -0.0125
     15 C         142.0332  141.5506  166.0510 C.3     1  UNL1        0.0320
     16 C         137.6707  140.0075  160.7465 C.3     1  UNL1        0.1070
     17 C         139.0666  142.1517  160.2948 C.2     1  UNL1        0.2637
     18 O         137.9716  142.9892  160.8861 O.2     1  UNL1       -0.2685
     19 N         138.9162  140.6610  160.2250 N.am    1  UNL1       -0.2982
     20 H         139.6349  140.1113  159.8369 H       1  UNL1        0.1498
     21 C         141.4565  144.6529  158.3498 C.ar    1  UNL1        0.1898
     22 N         142.8028  144.1120  158.7302 N.ar    1  UNL1       -0.2256
     23 C         142.9038  142.9177  159.6321 C.ar    1  UNL1        0.0632
     24 C         144.2503  142.3768  160.0125 C.3     1  UNL1        0.0522
     25 C         141.6584  142.2643  160.1537 C.ar    1  UNL1        0.0386
     26 C         140.3121  142.8052  159.7733 C.ar    1  UNL1        0.1377
     27 N         140.2111  143.9995  158.8714 N.ar    1  UNL1       -0.2166
     28 C         140.0166  146.2904  156.9374 C.3     1  UNL1        0.0772
     29 S         141.3555  145.8472  157.4479 S.3     1  UNL1       -0.0748
@<TRIPOS>BOND
     1    28    29    1
     2    29    21    1
     3    21    22   ar
     4    22    23   ar
     5    23    24    1
     6    23    25   ar
     7    25    26   ar
     8    26    17    1
     9    17    18    2
    10    17    19   am
    11    19    16    1
    12    16     1    1
    13     1     2    1
    14     2     3    1
    15     3     4    1
    16     4     5    1
    17     5     8    1
    18     8     9   ar
    19     9    10   ar
    20    10    11   ar
    21    11    12   ar
    22    12    13    1
    23    12    14   ar
    24    14    15    1
    25     5     6    1
    26     6     7    1
    27    26    27   ar
    28    27    21   ar
    29     7     2    1
    30    14     8   ar
    31    19    20    1
