@<TRIPOS>MOLECULE
*****
 29 33 0 0 0
SMALL
GASTEIGER

@<TRIPOS>ATOM
      1 C         140.4425  141.5932  167.3572 C.ar    1  UNL1        0.1347
      2 C         139.9534  140.2000  167.0933 C.ar    1  UNL1        0.0507
      3 C         139.4435  139.8294  165.7321 C.ar    1  UNL1        0.0831
      4 N         139.4227  140.8520  164.6350 N.ar    1  UNL1       -0.2294
      5 C         139.9118  142.2453  164.8989 C.ar    1  UNL1        0.1615
      6 N         140.4217  142.6159  166.2600 N.ar    1  UNL1       -0.2122
      7 C         139.8910  143.2679  163.8017 C.2     1  UNL1        0.0422
      8 C         138.6288  144.0211  163.5023 C.2     1  UNL1        0.0983
      9 N         138.6079  145.0436  162.4052 N.2     1  UNL1       -0.2413
     10 C         139.8493  145.3131  161.6073 C.2     1  UNL1        0.1141
     11 C         141.1114  144.5600  161.9067 C.2     1  UNL1        0.0860
     12 N         142.4796  144.6104  161.2940 N.2     1  UNL1       -0.2463
     13 C         143.3461  143.6189  162.0125 C.2     1  UNL1        0.0947
     14 C         142.5134  142.9558  163.0693 C.2     1  UNL1        0.0047
     15 C         141.1323  143.5374  163.0039 C.3     1  UNL1        0.0919
     16 C         143.3187  142.3640  167.7229 C.3     1  UNL1        0.0241
     17 C         142.3905  142.3493  168.9011 C.3     1  UNL1        0.1038
     18 C         142.9005  142.7199  170.2622 C.3     1  UNL1        0.1618
     19 O         141.9723  142.7051  171.4405 O.3     1  UNL1       -0.3502
     20 C         140.5343  142.3198  171.2577 C.3     1  UNL1        0.1636
     21 C         140.0243  141.9491  169.8966 C.3     1  UNL1        0.1242
     22 N         140.9525  141.9639  168.7183 N.pl3   1  UNL1       -0.2897
     23 C         138.9544  138.4362  165.4682 C.3     1  UNL1        0.1456
     24 C         138.1803  137.1608  165.6242 C.3     1  UNL1        0.0297
     25 C         137.9640  138.2918  166.5855 C.3     1  UNL1        0.0297
     26 S         139.7750  138.0967  164.2593 S.O2    1  UNL1       -0.0065
     27 C         140.5955  137.7572  163.0505 C.3     1  UNL1        0.1764
     28 O         140.9968  137.9796  165.1216 O.2     1  UNL1       -0.1727
     29 O         138.5532  138.2138  163.3971 O.2     1  UNL1       -0.1727
@<TRIPOS>BOND
     1    17    16    1
     2    17    18    1
     3    18    19    1
     4    19    20    1
     5    20    21    1
     6    21    22    1
     7    22     1    1
     8     1     2   ar
     9     2     3   ar
    10     3    23    1
    11    23    26    1
    12    26    27    1
    13    26    28    2
    14    26    29    2
    15    23    24    1
    16    24    25    1
    17     3     4   ar
    18     4     5   ar
    19     5     7    1
    20     7     8    2
    21     8     9    1
    22     9    10    2
    23    10    11    1
    24    11    12    2
    25    12    13    1
    26    13    14    2
    27    14    15    1
    28     5     6   ar
    29    22    17    1
    30     6     1   ar
    31    25    23    1
    32    15     7    1
    33    15    11    1
@<TRIPOS>MOLECULE
*****
 29 33 0 0 0
SMALL
GASTEIGER

@<TRIPOS>ATOM
      1 C         140.8364  140.8183  163.9575 C.ar    1  UNL1        0.1347
      2 C         141.4305  142.0972  163.4461 C.ar    1  UNL1        0.0507
      3 C         142.1894  142.9963  164.3766 C.ar    1  UNL1        0.0831
      4 N         142.3542  142.6166  165.8182 N.ar    1  UNL1       -0.2294
      5 C         141.7601  141.3377  166.3297 C.ar    1  UNL1        0.1615
      6 N         141.0012  140.4385  165.3993 N.ar    1  UNL1       -0.2122
      7 C         141.9249  140.9580  167.7714 C.2     1  UNL1        0.0422
      8 C         142.6892  139.7206  168.1385 C.2     1  UNL1        0.0983
      9 N         142.8540  139.3409  169.5802 N.2     1  UNL1       -0.2413
     10 C         142.2545  140.1986  170.6550 C.2     1  UNL1        0.1141
     11 C         141.4902  141.4360  170.2879 C.2     1  UNL1        0.0860
     12 N         140.7923  142.4690  171.1220 N.2     1  UNL1       -0.2463
     13 C         140.1961  143.4871  170.1958 C.2     1  UNL1        0.0947
     14 C         140.5256  143.0834  168.7892 C.2     1  UNL1        0.0047
     15 C         141.3254  141.8157  168.8461 C.3     1  UNL1        0.0919
     16 C         137.8508  141.0376  163.7625 C.3     1  UNL1        0.0241
     17 C         138.5847  140.0288  162.9297 C.3     1  UNL1        0.1038
     18 C         137.8258  139.1296  161.9993 C.3     1  UNL1        0.1618
     19 O         138.5597  138.1208  161.1665 O.3     1  UNL1       -0.3502
     20 C         140.0525  138.0111  161.2639 C.3     1  UNL1        0.1636
     21 C         140.8115  138.9103  162.1943 C.3     1  UNL1        0.1242
     22 N         140.0775  139.9192  163.0272 N.pl3   1  UNL1       -0.2897
     23 C         142.7835  144.2752  163.8652 C.3     1  UNL1        0.1456
     24 C         143.7738  145.3798  163.6435 C.3     1  UNL1        0.0297
     25 C         144.1308  144.2175  164.5220 C.3     1  UNL1        0.0297
     26 S         141.6425  144.7770  163.0307 S.O2    1  UNL1       -0.0065
     27 C         140.5015  145.2788  162.1963 C.3     1  UNL1        0.1764
     28 O         142.4760  144.6160  161.7941 O.2     1  UNL1       -0.1727
     29 O         140.8089  144.9380  164.2674 O.2     1  UNL1       -0.1727
@<TRIPOS>BOND
     1    17    16    1
     2    17    18    1
     3    18    19    1
     4    19    20    1
     5    20    21    1
     6    21    22    1
     7    22     1    1
     8     1     2   ar
     9     2     3   ar
    10     3    23    1
    11    23    26    1
    12    26    27    1
    13    26    28    2
    14    26    29    2
    15    23    24    1
    16    24    25    1
    17     3     4   ar
    18     4     5   ar
    19     5     7    1
    20     7     8    2
    21     8     9    1
    22     9    10    2
    23    10    11    1
    24    11    12    2
    25    12    13    1
    26    13    14    2
    27    14    15    1
    28     5     6   ar
    29    22    17    1
    30     6     1   ar
    31    25    23    1
    32    15     7    1
    33    15    11    1
@<TRIPOS>MOLECULE
*****
 29 33 0 0 0
SMALL
GASTEIGER

@<TRIPOS>ATOM
      1 C         140.8381  142.2560  164.0617 C.ar    1  UNL1        0.1347
      2 C         140.9065  140.8538  163.5334 C.ar    1  UNL1        0.0507
      3 C         141.3058  139.7288  164.4418 C.ar    1  UNL1        0.0831
      4 N         141.6367  140.0060  165.8782 N.ar    1  UNL1       -0.2294
      5 C         141.5684  141.4083  166.4065 C.ar    1  UNL1        0.1615
      6 N         141.1691  142.5333  165.4983 N.ar    1  UNL1       -0.2122
      7 C         141.8993  141.6855  167.8431 C.2     1  UNL1        0.0422
      8 C         143.1732  142.3945  168.1960 C.2     1  UNL1        0.0983
      9 N         143.5041  142.6717  169.6324 N.2     1  UNL1       -0.2413
     10 C         142.5611  142.2399  170.7162 C.2     1  UNL1        0.1141
     11 C         141.2873  141.5309  170.3633 C.2     1  UNL1        0.0860
     12 N         140.1723  140.9902  171.2086 N.2     1  UNL1       -0.2463
     13 C         139.1523  140.3788  170.2944 C.2     1  UNL1        0.0947
     14 C         139.6368  140.5416  168.8842 C.2     1  UNL1        0.0047
     15 C         140.9563  141.2537  168.9268 C.3     1  UNL1        0.0919
     16 C         138.1336  143.5234  164.3433 C.3     1  UNL1        0.0241
     17 C         139.0866  144.0147  163.2943 C.3     1  UNL1        0.1038
     18 C         138.6873  145.1397  162.3860 C.3     1  UNL1        0.1618
     19 O         139.6403  145.6310  161.3370 O.3     1  UNL1       -0.3502
     20 C         140.9925  144.9974  161.1962 C.3     1  UNL1        0.1636
     21 C         141.3919  143.8724  162.1044 C.3     1  UNL1        0.1242
     22 N         140.4388  143.3810  163.1535 N.pl3   1  UNL1       -0.2897
     23 C         141.3742  138.3266  163.9135 C.3     1  UNL1        0.1456
     24 C         141.0418  136.8774  163.7146 C.3     1  UNL1        0.0297
     25 C         140.2438  137.7046  164.6786 C.3     1  UNL1        0.0297
     26 S         142.5283  138.4617  162.9649 S.O2    1  UNL1       -0.0065
     27 C         143.6823  138.5967  162.0163 C.3     1  UNL1        0.1764
     28 O         143.4547  138.6834  164.1236 O.2     1  UNL1       -0.1727
     29 O         141.6019  138.2399  161.8061 O.2     1  UNL1       -0.1727
@<TRIPOS>BOND
     1    17    16    1
     2    17    18    1
     3    18    19    1
     4    19    20    1
     5    20    21    1
     6    21    22    1
     7    22     1    1
     8     1     2   ar
     9     2     3   ar
    10     3    23    1
    11    23    26    1
    12    26    27    1
    13    26    28    2
    14    26    29    2
    15    23    24    1
    16    24    25    1
    17     3     4   ar
    18     4     5   ar
    19     5     7    1
    20     7     8    2
    21     8     9    1
    22     9    10    2
    23    10    11    1
    24    11    12    2
    25    12    13    1
    26    13    14    2
    27    14    15    1
    28     5     6   ar
    29    22    17    1
    30     6     1   ar
    31    25    23    1
    32    15     7    1
    33    15    11    1
@<TRIPOS>MOLECULE
*****
 29 33 0 0 0
SMALL
GASTEIGER

@<TRIPOS>ATOM
      1 C         142.0903  141.7199  164.7177 C.ar    1  UNL1        0.1347
      2 C         141.1074  140.8205  164.0285 C.ar    1  UNL1        0.0507
      3 C         140.3696  139.7756  164.8121 C.ar    1  UNL1        0.0831
      4 N         140.6147  139.6301  166.2846 N.ar    1  UNL1       -0.2294
      5 C         141.5977  140.5295  166.9738 C.ar    1  UNL1        0.1615
      6 N         142.3354  141.5744  166.1904 N.ar    1  UNL1       -0.2122
      7 C         141.8428  140.3840  168.4465 C.2     1  UNL1        0.0422
      8 C         142.7636  139.3130  168.9513 C.2     1  UNL1        0.0983
      9 N         143.0087  139.1674  170.4239 N.2     1  UNL1       -0.2413
     10 C         142.3330  140.0930  171.3919 C.2     1  UNL1        0.1141
     11 C         141.4122  141.1641  170.8870 C.2     1  UNL1        0.0860
     12 N         140.6114  142.2155  171.5964 N.2     1  UNL1       -0.2463
     13 C         139.8713  143.0108  170.5621 C.2     1  UNL1        0.0947
     14 C         140.2147  142.4509  169.2135 C.2     1  UNL1        0.0047
     15 C         141.1671  141.3096  169.4144 C.3     1  UNL1        0.0919
     16 C         144.3541  140.9246  162.9170 C.3     1  UNL1        0.0241
     17 C         143.9600  142.3671  163.0338 C.3     1  UNL1        0.1038
     18 C         144.6977  143.4120  162.2503 C.3     1  UNL1        0.1618
     19 O         144.3036  144.8546  162.3672 O.3     1  UNL1       -0.3502
     20 C         143.1717  145.2523  163.2675 C.3     1  UNL1        0.1636
     21 C         142.4338  144.2074  164.0510 C.3     1  UNL1        0.1242
     22 N         142.8280  142.7648  163.9342 N.pl3   1  UNL1       -0.2897
     23 C         139.3867  138.8762  164.1229 C.3     1  UNL1        0.1456
     24 C         138.7338  137.6213  163.6237 C.3     1  UNL1        0.0297
     25 C         139.9958  137.5404  164.4306 C.3     1  UNL1        0.0297
     26 S         138.4363  139.8997  163.5758 S.O2    1  UNL1       -0.0065
     27 C         137.4860  140.9231  163.0288 C.3     1  UNL1        0.1764
     28 O         138.9076  139.5938  162.1850 O.2     1  UNL1       -0.1727
     29 O         137.9651  140.2055  164.9666 O.2     1  UNL1       -0.1727
@<TRIPOS>BOND
     1    17    16    1
     2    17    18    1
     3    18    19    1
     4    19    20    1
     5    20    21    1
     6    21    22    1
     7    22     1    1
     8     1     2   ar
     9     2     3   ar
    10     3    23    1
    11    23    26    1
    12    26    27    1
    13    26    28    2
    14    26    29    2
    15    23    24    1
    16    24    25    1
    17     3     4   ar
    18     4     5   ar
    19     5     7    1
    20     7     8    2
    21     8     9    1
    22     9    10    2
    23    10    11    1
    24    11    12    2
    25    12    13    1
    26    13    14    2
    27    14    15    1
    28     5     6   ar
    29    22    17    1
    30     6     1   ar
    31    25    23    1
    32    15     7    1
    33    15    11    1
@<TRIPOS>MOLECULE
*****
 29 33 0 0 0
SMALL
GASTEIGER

@<TRIPOS>ATOM
      1 C         140.9242  140.3012  164.3048 C.ar    1  UNL1        0.1347
      2 C         142.1604  140.8322  163.6416 C.ar    1  UNL1        0.0507
      3 C         143.3186  141.2950  164.4750 C.ar    1  UNL1        0.0831
      4 N         143.2406  141.2267  165.9713 N.ar    1  UNL1       -0.2294
      5 C         142.0043  140.6957  166.6345 C.ar    1  UNL1        0.1615
      6 N         140.8461  140.2329  165.8012 N.ar    1  UNL1       -0.2122
      7 C         141.9264  140.6274  168.1309 C.2     1  UNL1        0.0422
      8 C         142.4628  139.4289  168.8560 C.2     1  UNL1        0.0983
      9 N         142.3848  139.3606  170.3523 N.2     1  UNL1       -0.2413
     10 C         141.7704  140.4909  171.1238 C.2     1  UNL1        0.1141
     11 C         141.2340  141.6894  170.3987 C.2     1  UNL1        0.0860
     12 N         140.5779  142.9470  170.8866 N.2     1  UNL1       -0.2463
     13 C         140.2505  143.7925  169.6916 C.2     1  UNL1        0.0947
     14 C         140.7041  143.0575  168.4653 C.2     1  UNL1        0.0047
     15 C         141.3119  141.7576  168.9023 C.3     1  UNL1        0.0919
     16 C         140.6421  137.3965  163.6098 C.3     1  UNL1        0.0241
     17 C         139.6249  138.3861  163.1240 C.3     1  UNL1        0.1038
     18 C         138.4667  137.9233  162.2907 C.3     1  UNL1        0.1618
     19 O         137.4495  138.9129  161.8050 O.3     1  UNL1       -0.3502
     20 C         137.5904  140.3652  162.1524 C.3     1  UNL1        0.1636
     21 C         138.7487  140.8281  162.9857 C.3     1  UNL1        0.1242
     22 N         139.7659  139.8384  163.4715 N.pl3   1  UNL1       -0.2897
     23 C         144.5548  141.8260  163.8118 C.3     1  UNL1        0.1456
     24 C         145.9608  141.8860  163.2924 C.3     1  UNL1        0.0297
     25 C         145.4728  140.6541  163.9955 C.3     1  UNL1        0.0297
     26 S         144.0660  143.1824  163.3978 S.O2    1  UNL1       -0.0065
     27 C         143.5773  144.5387  162.9838 C.3     1  UNL1        0.1764
     28 O         144.1930  143.6604  164.8140 O.2     1  UNL1       -0.1727
     29 O         143.9391  142.7044  161.9817 O.2     1  UNL1       -0.1727
@<TRIPOS>BOND
     1    17    16    1
     2    17    18    1
     3    18    19    1
     4    19    20    1
     5    20    21    1
     6    21    22    1
     7    22     1    1
     8     1     2   ar
     9     2     3   ar
    10     3    23    1
    11    23    26    1
    12    26    27    1
    13    26    28    2
    14    26    29    2
    15    23    24    1
    16    24    25    1
    17     3     4   ar
    18     4     5   ar
    19     5     7    1
    20     7     8    2
    21     8     9    1
    22     9    10    2
    23    10    11    1
    24    11    12    2
    25    12    13    1
    26    13    14    2
    27    14    15    1
    28     5     6   ar
    29    22    17    1
    30     6     1   ar
    31    25    23    1
    32    15     7    1
    33    15    11    1
@<TRIPOS>MOLECULE
*****
 29 33 0 0 0
SMALL
GASTEIGER

@<TRIPOS>ATOM
      1 C         141.8555  140.6589  164.2281 C.ar    1  UNL1        0.1347
      2 C         140.7052  141.5634  163.8985 C.ar    1  UNL1        0.0507
      3 C         139.8939  142.1771  165.0009 C.ar    1  UNL1        0.0831
      4 N         140.2329  141.8863  166.4328 N.ar    1  UNL1       -0.2294
      5 C         141.3832  140.9817  166.7624 C.ar    1  UNL1        0.1615
      6 N         142.1945  140.3680  165.6601 N.ar    1  UNL1       -0.2122
      7 C         141.7222  140.6909  168.1944 C.2     1  UNL1        0.0422
      8 C         142.6740  139.5810  168.5293 C.2     1  UNL1        0.0983
      9 N         143.0130  139.2902  169.9612 N.2     1  UNL1       -0.2413
     10 C         142.4001  140.1093  171.0583 C.2     1  UNL1        0.1141
     11 C         141.4483  141.2191  170.7234 C.2     1  UNL1        0.0860
     12 N         140.6939  142.1884  171.5844 N.2     1  UNL1       -0.2463
     13 C         139.8887  143.0783  170.6846 C.2     1  UNL1        0.0947
     14 C         140.1454  142.6590  169.2674 C.2     1  UNL1        0.0047
     15 C         141.1093  141.5100  169.2914 C.3     1  UNL1        0.0919
     16 C         141.6207  137.7250  163.6476 C.3     1  UNL1        0.0241
     17 C         142.5494  138.5783  162.8355 C.3     1  UNL1        0.1038
     18 C         143.3607  137.9645  161.7332 C.3     1  UNL1        0.1618
     19 O         144.2894  138.8178  160.9211 O.3     1  UNL1       -0.3502
     20 C         144.4069  140.2847  161.2113 C.3     1  UNL1        0.1636
     21 C         143.5956  140.8985  162.3137 C.3     1  UNL1        0.1242
     22 N         142.6668  140.0452  163.1258 N.pl3   1  UNL1       -0.2897
     23 C         138.7437  143.0817  164.6712 C.3     1  UNL1        0.1456
     24 C         137.8540  144.2894  164.6755 C.3     1  UNL1        0.0297
     25 C         139.0948  144.2689  165.5182 C.3     1  UNL1        0.0297
     26 S         137.9930  142.2086  163.7098 S.O2    1  UNL1       -0.0065
     27 C         137.2424  141.3356  162.7485 C.3     1  UNL1        0.1764
     28 O         137.8045  141.1831  164.7883 O.2     1  UNL1       -0.1727
     29 O         138.1815  143.2340  162.6314 O.2     1  UNL1       -0.1727
@<TRIPOS>BOND
     1    17    16    1
     2    17    18    1
     3    18    19    1
     4    19    20    1
     5    20    21    1
     6    21    22    1
     7    22     1    1
     8     1     2   ar
     9     2     3   ar
    10     3    23    1
    11    23    26    1
    12    26    27    1
    13    26    28    2
    14    26    29    2
    15    23    24    1
    16    24    25    1
    17     3     4   ar
    18     4     5   ar
    19     5     7    1
    20     7     8    2
    21     8     9    1
    22     9    10    2
    23    10    11    1
    24    11    12    2
    25    12    13    1
    26    13    14    2
    27    14    15    1
    28     5     6   ar
    29    22    17    1
    30     6     1   ar
    31    25    23    1
    32    15     7    1
    33    15    11    1
@<TRIPOS>MOLECULE
*****
 29 33 0 0 0
SMALL
GASTEIGER

@<TRIPOS>ATOM
      1 C         140.3177  142.1023  164.5400 C.ar    1  UNL1        0.1347
      2 C         140.4109  140.8112  163.7822 C.ar    1  UNL1        0.0507
      3 C         140.4975  139.5105  164.5245 C.ar    1  UNL1        0.0831
      4 N         140.4908  139.5011  166.0244 N.ar    1  UNL1       -0.2294
      5 C         140.3975  140.7923  166.7822 C.ar    1  UNL1        0.1615
      6 N         140.3110  142.0929  166.0400 N.ar    1  UNL1       -0.2122
      7 C         140.3908  140.7828  168.2821 C.2     1  UNL1        0.0422
      8 C         139.2613  140.1307  169.0230 C.2     1  UNL1        0.0983
      9 N         139.2545  140.1212  170.5229 N.2     1  UNL1       -0.2413
     10 C         140.3774  140.7639  171.2821 C.2     1  UNL1        0.1141
     11 C         141.5070  141.4159  170.5412 C.2     1  UNL1        0.0860
     12 N         142.7416  142.1239  171.0148 N.2     1  UNL1       -0.2463
     13 C         143.5114  142.5710  169.8075 C.2     1  UNL1        0.0947
     14 C         142.7525  142.1393  168.5878 C.2     1  UNL1        0.0047
     15 C         141.5137  141.4254  169.0413 C.3     1  UNL1        0.0919
     16 C         137.6512  143.1409  163.6394 C.3     1  UNL1        0.0241
     17 C         138.8979  143.9223  163.3475 C.3     1  UNL1        0.1038
     18 C         138.8113  145.2229  162.6053 C.3     1  UNL1        0.1618
     19 O         140.0580  146.0042  162.3134 O.3     1  UNL1       -0.3502
     20 C         141.3913  145.4851  162.7637 C.3     1  UNL1        0.1636
     21 C         141.4779  144.1844  163.5059 C.3     1  UNL1        0.1242
     22 N         140.2311  143.4030  163.7978 N.pl3   1  UNL1       -0.2897
     23 C         140.5908  138.2194  163.7667 C.3     1  UNL1        0.1456
     24 C         141.1140  136.8930  163.3010 C.3     1  UNL1        0.0297
     25 C         141.8612  137.6695  164.3445 C.3     1  UNL1        0.0297
     26 S         139.3527  138.3209  162.9259 S.O2    1  UNL1       -0.0065
     27 C         138.1148  138.4225  162.0850 C.3     1  UNL1        0.1764
     28 O         138.5058  138.1781  164.1556 O.2     1  UNL1       -0.1727
     29 O         140.1997  138.4637  161.6961 O.2     1  UNL1       -0.1727
@<TRIPOS>BOND
     1    17    16    1
     2    17    18    1
     3    18    19    1
     4    19    20    1
     5    20    21    1
     6    21    22    1
     7    22     1    1
     8     1     2   ar
     9     2     3   ar
    10     3    23    1
    11    23    26    1
    12    26    27    1
    13    26    28    2
    14    26    29    2
    15    23    24    1
    16    24    25    1
    17     3     4   ar
    18     4     5   ar
    19     5     7    1
    20     7     8    2
    21     8     9    1
    22     9    10    2
    23    10    11    1
    24    11    12    2
    25    12    13    1
    26    13    14    2
    27    14    15    1
    28     5     6   ar
    29    22    17    1
    30     6     1   ar
    31    25    23    1
    32    15     7    1
    33    15    11    1
@<TRIPOS>MOLECULE
*****
 29 33 0 0 0
SMALL
GASTEIGER

@<TRIPOS>ATOM
      1 C         141.7956  140.9319  163.6377 C.ar    1  UNL1        0.1347
      2 C         140.6996  141.8323  163.1499 C.ar    1  UNL1        0.0507
      3 C         140.0055  142.7553  164.1072 C.ar    1  UNL1        0.0831
      4 N         140.4073  142.7779  165.5521 N.ar    1  UNL1       -0.2294
      5 C         141.5034  141.8774  166.0399 C.ar    1  UNL1        0.1615
      6 N         142.1975  140.9544  165.0827 N.ar    1  UNL1       -0.2122
      7 C         141.9053  141.9000  167.4849 C.2     1  UNL1        0.0422
      8 C         143.2362  142.4645  167.8845 C.2     1  UNL1        0.0983
      9 N         143.6381  142.4871  169.3294 N.2     1  UNL1       -0.2413
     10 C         142.7090  141.9451  170.3749 C.2     1  UNL1        0.1141
     11 C         141.3780  141.3805  169.9753 C.2     1  UNL1        0.0860
     12 N         140.2612  140.7799  170.7765 N.2     1  UNL1       -0.2463
     13 C         139.1691  140.3861  169.8267 C.2     1  UNL1        0.0947
     14 C         139.6109  140.7433  168.4385 C.2     1  UNL1        0.0047
     15 C         140.9761  141.3579  168.5303 C.3     1  UNL1        0.0919
     16 C         141.1200  138.0090  163.6156 C.3     1  UNL1        0.0241
     17 C         142.1519  138.5474  162.6695 C.3     1  UNL1        0.1038
     18 C         142.8460  137.6244  161.7123 C.3     1  UNL1        0.1618
     19 O         143.8780  138.1628  160.7662 O.3     1  UNL1       -0.3502
     20 C         144.2158  139.6242  160.7771 C.3     1  UNL1        0.1636
     21 C         143.5217  140.5473  161.7343 C.3     1  UNL1        0.1242
     22 N         142.4897  140.0089  162.6805 N.pl3   1  UNL1       -0.2897
     23 C         138.9095  143.6558  163.6194 C.3     1  UNL1        0.1456
     24 C         137.5490  144.2719  163.4788 C.3     1  UNL1        0.0297
     25 C         137.7675  143.1496  164.4499 C.3     1  UNL1        0.0297
     26 S         139.6708  144.4746  162.6195 S.O2    1  UNL1       -0.0065
     27 C         140.4322  145.2935  161.6196 C.3     1  UNL1        0.1764
     28 O         138.8460  143.8890  161.5119 O.2     1  UNL1       -0.1727
     29 O         140.4956  145.0603  163.7271 O.2     1  UNL1       -0.1727
@<TRIPOS>BOND
     1    17    16    1
     2    17    18    1
     3    18    19    1
     4    19    20    1
     5    20    21    1
     6    21    22    1
     7    22     1    1
     8     1     2   ar
     9     2     3   ar
    10     3    23    1
    11    23    26    1
    12    26    27    1
    13    26    28    2
    14    26    29    2
    15    23    24    1
    16    24    25    1
    17     3     4   ar
    18     4     5   ar
    19     5     7    1
    20     7     8    2
    21     8     9    1
    22     9    10    2
    23    10    11    1
    24    11    12    2
    25    12    13    1
    26    13    14    2
    27    14    15    1
    28     5     6   ar
    29    22    17    1
    30     6     1   ar
    31    25    23    1
    32    15     7    1
    33    15    11    1
@<TRIPOS>MOLECULE
*****
 29 33 0 0 0
SMALL
GASTEIGER

@<TRIPOS>ATOM
      1 C         141.7054  140.6125  163.5225 C.ar    1  UNL1        0.1347
      2 C         141.4409  142.0094  163.0444 C.ar    1  UNL1        0.0507
      3 C         140.9393  143.0480  164.0035 C.ar    1  UNL1        0.0831
      4 N         140.7022  142.6896  165.4406 N.ar    1  UNL1       -0.2294
      5 C         140.9667  141.2926  165.9187 C.ar    1  UNL1        0.1615
      6 N         141.4683  140.2540  164.9596 N.ar    1  UNL1       -0.2122
      7 C         140.7296  140.9342  167.3558 C.2     1  UNL1        0.0422
      8 C         139.5273  140.1227  167.7379 C.2     1  UNL1        0.0983
      9 N         139.2902  139.7643  169.1749 N.2     1  UNL1       -0.2413
     10 C         140.2553  140.2174  170.2300 C.2     1  UNL1        0.1141
     11 C         141.4576  141.0289  169.8480 C.2     1  UNL1        0.0860
     12 N         142.5744  141.6125  170.6617 N.2     1  UNL1       -0.2463
     13 C         143.5018  142.3316  169.7274 C.2     1  UNL1        0.0947
     14 C         142.9582  142.1924  168.3363 C.2     1  UNL1        0.0047
     15 C         141.6947  141.3873  168.4108 C.3     1  UNL1        0.0919
     16 C         144.5448  139.6593  163.6935 C.3     1  UNL1        0.0241
     17 C         143.6267  139.0974  162.6489 C.3     1  UNL1        0.1038
     18 C         144.1282  138.0588  161.6899 C.3     1  UNL1        0.1618
     19 O         143.2101  137.4968  160.6453 O.3     1  UNL1       -0.3502
     20 C         141.7904  137.9733  160.5597 C.3     1  UNL1        0.1636
     21 C         141.2888  139.0119  161.5187 C.3     1  UNL1        0.1242
     22 N         142.2069  139.5739  162.5634 N.pl3   1  UNL1       -0.2897
     23 C         140.6749  144.4450  163.5255 C.3     1  UNL1        0.1456
     24 C         140.9274  145.8633  163.1076 C.3     1  UNL1        0.0297
     25 C         142.0717  144.9916  163.5328 C.3     1  UNL1        0.0297
     26 S         139.1862  144.3835  163.3521 S.O2    1  UNL1       -0.0065
     27 C         137.6976  144.3220  163.1789 C.3     1  UNL1        0.1764
     28 O         139.3698  143.8027  161.9814 O.2     1  UNL1       -0.1727
     29 O         139.0026  144.9642  164.7229 O.2     1  UNL1       -0.1727
@<TRIPOS>BOND
     1    17    16    1
     2    17    18    1
     3    18    19    1
     4    19    20    1
     5    20    21    1
     6    21    22    1
     7    22     1    1
     8     1     2   ar
     9     2     3   ar
    10     3    23    1
    11    23    26    1
    12    26    27    1
    13    26    28    2
    14    26    29    2
    15    23    24    1
    16    24    25    1
    17     3     4   ar
    18     4     5   ar
    19     5     7    1
    20     7     8    2
    21     8     9    1
    22     9    10    2
    23    10    11    1
    24    11    12    2
    25    12    13    1
    26    13    14    2
    27    14    15    1
    28     5     6   ar
    29    22    17    1
    30     6     1   ar
    31    25    23    1
    32    15     7    1
    33    15    11    1
