@<TRIPOS>MOLECULE
*****
 44 49 0 0 0
SMALL
GASTEIGER

@<TRIPOS>ATOM
      1 C         137.7808  142.8294  163.4470 C.3     1  UNL1        0.0932
      2 C         137.9160  142.8954  161.9546 C.3     1  UNL1        0.0286
      3 C         138.0100  141.6309  161.1534 C.3     1  UNL1        0.0193
      4 C         137.9687  140.3002  161.8446 C.3     1  UNL1        0.0700
      5 C         137.8335  140.2342  163.3370 C.3     1  UNL1        0.0193
      6 C         137.7395  141.4988  164.1382 C.3     1  UNL1        0.0286
      7 C         137.9138  140.9659  162.3259 C.3     1  UNL1        0.1562
      8 O         137.8288  142.1094  163.0505 O.3     1  UNL1       -0.3572
      9 N         138.0626  139.0356  161.0433 N.3     1  UNL1       -0.2926
     10 H         137.5626  139.2025  160.1701 H       1  UNL1        0.1236
     11 C         139.4060  138.4800  160.6737 C.3     1  UNL1        0.1152
     12 C         140.5359  138.5316  161.6589 C.ar    1  UNL1        0.0765
     13 C         140.5491  137.6001  162.8346 C.ar    1  UNL1        0.0193
     14 C         141.6790  137.6518  163.8197 C.ar    1  UNL1        0.0411
     15 C         142.7957  138.6349  163.6293 C.ar    1  UNL1        0.1708
     16 C         142.7826  139.5664  162.4537 C.ar    1  UNL1        0.1682
     17 N         141.6526  139.5148  161.4685 N.ar    1  UNL1       -0.2304
     18 N         143.8993  140.5496  162.2633 N.am    1  UNL1       -0.2639
     19 C         145.0292  140.6012  163.2485 C.2     1  UNL1        0.2718
     20 O         146.1460  141.5844  163.0581 O.2     1  UNL1       -0.2707
     21 C         145.0424  139.6697  164.4242 C.3     1  UNL1        0.2898
     22 O         143.9256  138.6865  164.6146 O.3     1  UNL1       -0.4628
     23 H         143.8907  141.1610  161.4917 H       1  UNL1        0.1565
     24 C         137.6869  144.0940  164.2483 C.3     1  UNL1        0.0320
     25 C         138.9104  144.9322  164.4729 C.3     1  UNL1        0.0327
     26 C         140.8893  142.2661  167.5102 C.ar    1  UNL1        0.2249
     27 C         142.2495  141.6966  167.2353 C.ar    1  UNL1        0.0593
     28 C         142.9500  142.0158  165.9479 C.ar    1  UNL1        0.0254
     29 C         142.2904  142.9044  164.9354 C.ar    1  UNL1        0.0990
     30 N         142.9909  143.2236  163.6480 N.ar    1  UNL1       -0.2400
     31 C         142.3313  144.1123  162.6356 C.ar    1  UNL1        0.1281
     32 C         140.9710  144.6819  162.9105 C.ar    1  UNL1        0.1566
     33 F         140.3114  145.5705  161.8981 F       1  UNL1       -0.2028
     34 C         140.2705  144.3627  164.1979 C.ar    1  UNL1        0.0261
     35 C         140.9302  143.4739  165.2104 C.ar    1  UNL1        0.1002
     36 N         140.2297  143.1548  166.4978 N.ar    1  UNL1       -0.2104
     37 O         140.1888  141.9469  168.7977 O.3     1  UNL1       -0.4602
     38 C         139.9420  140.5185  169.1830 C.3     1  UNL1        0.2072
     39 C         138.7888  139.7687  168.5846 C.3     1  UNL1        0.0488
     40 C         138.8566  139.3002  167.1612 C.3     1  UNL1        0.0207
     41 N         136.8881  137.6510  167.5548 N.3     1  UNL1       -0.3211
     42 C         137.7885  138.3987  166.6167 C.3     1  UNL1        0.0653
     43 H         136.2266  137.0910  167.0171 H       1  UNL1        0.1189
     44 H         136.3772  138.3147  168.1370 H       1  UNL1        0.1189
@<TRIPOS>BOND
     1    41    42    1
     2    42    40    1
     3    40    39    1
     4    39    38    1
     5    38    37    1
     6    37    26    1
     7    26    27   ar
     8    27    28   ar
     9    28    29   ar
    10    29    30   ar
    11    30    31   ar
    12    31    32   ar
    13    32    33    1
    14    32    34   ar
    15    34    25    1
    16    25    24    1
    17    24     1    1
    18     1     2    1
    19     2     3    1
    20     3     4    1
    21     4     9    1
    22     9    11    1
    23    11    12    1
    24    12    13   ar
    25    13    14   ar
    26    14    15   ar
    27    15    16   ar
    28    16    17   ar
    29    16    18    1
    30    18    19   am
    31    19    20    2
    32    19    21    1
    33    21    22    1
    34     4     5    1
    35     5     6    1
    36     4     7    1
    37     7     8    1
    38    34    35   ar
    39    35    36   ar
    40    36    26   ar
    41    35    29   ar
    42     6     1    1
    43     8     1    1
    44    17    12   ar
    45    22    15    1
    46    41    43    1
    47    41    44    1
    48     9    10    1
    49    18    23    1
@<TRIPOS>MOLECULE
*****
 44 49 0 0 0
SMALL
GASTEIGER

@<TRIPOS>ATOM
      1 C         137.7886  142.9535  163.0520 C.3     1  UNL1        0.0932
      2 C         137.9988  142.6625  161.5955 C.3     1  UNL1        0.0286
      3 C         138.0457  141.2429  161.1135 C.3     1  UNL1        0.0193
      4 C         137.8825  140.1141  162.0879 C.3     1  UNL1        0.0700
      5 C         137.6723  140.4051  163.5443 C.3     1  UNL1        0.0193
      6 C         137.6254  141.8248  164.0263 C.3     1  UNL1        0.0286
      7 C         137.8495  140.8757  162.3992 C.3     1  UNL1        0.1562
      8 O         137.8071  142.1593  162.8351 O.3     1  UNL1       -0.3572
      9 N         137.9295  138.6945  161.6058 N.3     1  UNL1       -0.2926
     10 H         137.3330  138.6441  160.7800 H       1  UNL1        0.1236
     11 C         139.2420  138.0729  161.2306 C.3     1  UNL1        0.1152
     12 C         140.4379  138.2525  162.1179 C.ar    1  UNL1        0.0765
     13 C         140.5740  137.4346  163.3680 C.ar    1  UNL1        0.0193
     14 C         141.7699  137.6142  164.2553 C.ar    1  UNL1        0.0411
     15 C         142.8298  138.6118  163.8927 C.ar    1  UNL1        0.1708
     16 C         142.6938  139.4297  162.6428 C.ar    1  UNL1        0.1682
     17 N         141.4978  139.2501  161.7553 N.ar    1  UNL1       -0.2304
     18 N         143.7537  140.4272  162.2801 N.am    1  UNL1       -0.2639
     19 C         144.9496  140.6069  163.1675 C.2     1  UNL1        0.2718
     20 O         146.0095  141.6044  162.8049 O.2     1  UNL1       -0.2707
     21 C         145.0857  139.7890  164.4176 C.3     1  UNL1        0.2898
     22 O         144.0258  138.7914  164.7802 O.3     1  UNL1       -0.4628
     23 H         143.6644  140.9641  161.4597 H       1  UNL1        0.1565
     24 C         137.7416  144.3731  163.5340 C.3     1  UNL1        0.0320
     25 C         138.8978  144.9434  164.3009 C.3     1  UNL1        0.0327
     26 C         140.9645  142.3591  167.3505 C.ar    1  UNL1        0.2249
     27 C         142.3552  141.8602  167.0919 C.ar    1  UNL1        0.0593
     28 C         143.0571  142.2227  165.8167 C.ar    1  UNL1        0.0254
     29 C         142.3682  143.0841  164.8002 C.ar    1  UNL1        0.0990
     30 N         143.0700  143.4467  163.5251 N.ar    1  UNL1       -0.2400
     31 C         142.3812  144.3081  162.5086 C.ar    1  UNL1        0.1281
     32 C         140.9904  144.8070  162.7672 C.ar    1  UNL1        0.1566
     33 F         140.3015  145.6685  161.7507 F       1  UNL1       -0.2028
     34 C         140.2885  144.4445  164.0423 C.ar    1  UNL1        0.0261
     35 C         140.9775  143.5830  165.0588 C.ar    1  UNL1        0.1002
     36 N         140.2756  143.2205  166.3340 N.ar    1  UNL1       -0.2104
     37 O         140.2627  141.9965  168.6256 O.3     1  UNL1       -0.4602
     38 C         139.8594  140.5747  168.8817 C.3     1  UNL1        0.2072
     39 C         140.4624  139.8189  170.0285 C.3     1  UNL1        0.0488
     40 C         141.9149  139.4453  169.9994 C.3     1  UNL1        0.0207
     41 N         142.5543  141.7846  170.9315 N.3     1  UNL1       -0.3211
     42 C         142.9591  140.4670  170.3399 C.3     1  UNL1        0.0653
     43 H         143.3854  142.3519  171.0987 H       1  UNL1        0.1189
     44 H         142.0677  141.6260  171.8138 H       1  UNL1        0.1189
@<TRIPOS>BOND
     1    41    42    1
     2    42    40    1
     3    40    39    1
     4    39    38    1
     5    38    37    1
     6    37    26    1
     7    26    27   ar
     8    27    28   ar
     9    28    29   ar
    10    29    30   ar
    11    30    31   ar
    12    31    32   ar
    13    32    33    1
    14    32    34   ar
    15    34    25    1
    16    25    24    1
    17    24     1    1
    18     1     2    1
    19     2     3    1
    20     3     4    1
    21     4     9    1
    22     9    11    1
    23    11    12    1
    24    12    13   ar
    25    13    14   ar
    26    14    15   ar
    27    15    16   ar
    28    16    17   ar
    29    16    18    1
    30    18    19   am
    31    19    20    2
    32    19    21    1
    33    21    22    1
    34     4     5    1
    35     5     6    1
    36     4     7    1
    37     7     8    1
    38    34    35   ar
    39    35    36   ar
    40    36    26   ar
    41    35    29   ar
    42     6     1    1
    43     8     1    1
    44    17    12   ar
    45    22    15    1
    46    41    43    1
    47    41    44    1
    48     9    10    1
    49    18    23    1
@<TRIPOS>MOLECULE
*****
 44 49 0 0 0
SMALL
GASTEIGER

@<TRIPOS>ATOM
      1 C         141.9194  138.1328  164.1435 C.3     1  UNL1        0.0932
      2 C         142.2476  138.3466  162.6955 C.3     1  UNL1        0.0286
      3 C         143.4602  139.1412  162.3108 C.3     1  UNL1        0.0193
      4 C         144.3447  139.7221  163.3740 C.3     1  UNL1        0.0700
      5 C         144.0164  139.5083  164.8220 C.3     1  UNL1        0.0193
      6 C         142.8037  138.7136  165.2067 C.3     1  UNL1        0.0286
      7 C         143.6911  139.2939  163.6336 C.3     1  UNL1        0.1562
      8 O         142.5946  138.5753  163.9815 O.3     1  UNL1       -0.3572
      9 N         145.5573  140.5168  162.9893 N.3     1  UNL1       -0.2926
     10 H         145.6272  140.4736  161.9726 H       1  UNL1        0.1236
     11 C         145.6568  141.9645  163.3691 C.3     1  UNL1        0.1152
     12 C         144.4635  142.8617  163.2239 C.ar    1  UNL1        0.0765
     13 C         143.8422  143.4858  164.4382 C.ar    1  UNL1        0.0193
     14 C         142.6490  144.3830  164.2930 C.ar    1  UNL1        0.0411
     15 C         142.0770  144.6562  162.9335 C.ar    1  UNL1        0.1708
     16 C         142.6982  144.0321  161.7192 C.ar    1  UNL1        0.1682
     17 N         143.8916  143.1349  161.8644 N.ar    1  UNL1       -0.2304
     18 N         142.1263  144.3053  160.3598 N.am    1  UNL1       -0.2639
     19 C         140.9330  145.2025  160.2146 C.2     1  UNL1        0.2718
     20 O         140.3610  145.4757  158.8551 O.2     1  UNL1       -0.2707
     21 C         140.3117  145.8266  161.4289 C.3     1  UNL1        0.2898
     22 O         140.8837  145.5534  162.7884 O.3     1  UNL1       -0.4628
     23 H         142.5340  143.8957  159.5628 H       1  UNL1        0.1565
     24 C         140.7068  137.3381  164.5282 C.3     1  UNL1        0.0320
     25 C         139.4316  138.0419  164.8870 C.3     1  UNL1        0.0327
     26 C         139.8892  142.3415  166.1334 C.ar    1  UNL1        0.2249
     27 C         139.3643  143.4373  165.2538 C.ar    1  UNL1        0.0593
     28 C         138.6869  143.0999  163.9587 C.ar    1  UNL1        0.0254
     29 C         138.5343  141.6667  163.5433 C.ar    1  UNL1        0.0990
     30 N         137.8569  141.3293  162.2482 N.ar    1  UNL1       -0.2400
     31 C         137.7043  139.8961  161.8327 C.ar    1  UNL1        0.1281
     32 C         138.2292  138.8003  162.7123 C.ar    1  UNL1        0.1566
     33 F         138.0767  137.3671  162.2968 F       1  UNL1       -0.2028
     34 C         138.9067  139.1377  164.0074 C.ar    1  UNL1        0.0261
     35 C         139.0592  140.5710  164.4228 C.ar    1  UNL1        0.1002
     36 N         139.7367  140.9084  165.7179 N.ar    1  UNL1       -0.2104
     37 O         140.5667  142.6789  167.4285 O.3     1  UNL1       -0.4602
     38 C         141.5683  141.7319  168.0200 C.3     1  UNL1        0.2072
     39 C         142.9184  142.2335  168.4388 C.3     1  UNL1        0.0488
     40 C         143.4782  141.8520  169.7772 C.3     1  UNL1        0.0207
     41 N         142.2520  140.6937  171.7533 N.3     1  UNL1       -0.3211
     42 C         143.0053  140.6026  170.4594 C.3     1  UNL1        0.0653
     43 H         142.0100  139.7557  172.0726 H       1  UNL1        0.1189
     44 H         141.3994  141.2356  171.6129 H       1  UNL1        0.1189
@<TRIPOS>BOND
     1    41    42    1
     2    42    40    1
     3    40    39    1
     4    39    38    1
     5    38    37    1
     6    37    26    1
     7    26    27   ar
     8    27    28   ar
     9    28    29   ar
    10    29    30   ar
    11    30    31   ar
    12    31    32   ar
    13    32    33    1
    14    32    34   ar
    15    34    25    1
    16    25    24    1
    17    24     1    1
    18     1     2    1
    19     2     3    1
    20     3     4    1
    21     4     9    1
    22     9    11    1
    23    11    12    1
    24    12    13   ar
    25    13    14   ar
    26    14    15   ar
    27    15    16   ar
    28    16    17   ar
    29    16    18    1
    30    18    19   am
    31    19    20    2
    32    19    21    1
    33    21    22    1
    34     4     5    1
    35     5     6    1
    36     4     7    1
    37     7     8    1
    38    34    35   ar
    39    35    36   ar
    40    36    26   ar
    41    35    29   ar
    42     6     1    1
    43     8     1    1
    44    17    12   ar
    45    22    15    1
    46    41    43    1
    47    41    44    1
    48     9    10    1
    49    18    23    1
@<TRIPOS>MOLECULE
*****
 44 49 0 0 0
SMALL
GASTEIGER

@<TRIPOS>ATOM
      1 C         142.6176  144.4247  163.3005 C.3     1  UNL1        0.0932
      2 C         142.4924  143.8751  161.9105 C.3     1  UNL1        0.0286
      3 C         141.1353  143.6473  161.3135 C.3     1  UNL1        0.0193
      4 C         139.9034  143.9691  162.1066 C.3     1  UNL1        0.0700
      5 C         140.0286  144.5187  163.4966 C.3     1  UNL1        0.0193
      6 C         141.3858  144.7465  164.0936 C.3     1  UNL1        0.0286
      7 C         140.6255  144.1108  162.4760 C.3     1  UNL1        0.1562
      8 O         141.8526  144.3168  163.0159 O.3     1  UNL1       -0.3572
      9 N         138.5463  143.7413  161.5096 N.3     1  UNL1       -0.2926
     10 H         138.4371  144.4225  160.7582 H       1  UNL1        0.1236
     11 C         138.1956  142.4014  160.9337 C.3     1  UNL1        0.1152
     12 C         138.3725  141.1611  161.7585 C.ar    1  UNL1        0.0765
     13 C         138.8892  139.9047  161.1223 C.ar    1  UNL1        0.0193
     14 C         139.0661  138.6644  161.9470 C.ar    1  UNL1        0.0411
     15 C         138.7262  138.6803  163.4079 C.ar    1  UNL1        0.1708
     16 C         138.2095  139.9365  164.0441 C.ar    1  UNL1        0.1682
     17 N         138.0326  141.1770  163.2194 N.ar    1  UNL1       -0.2304
     18 N         137.8696  139.9524  165.5050 N.am    1  UNL1       -0.2639
     19 C         138.0465  138.7121  166.3297 C.2     1  UNL1        0.2718
     20 O         137.7066  138.7280  167.7906 O.2     1  UNL1       -0.2707
     21 C         138.5632  137.4558  165.6935 C.3     1  UNL1        0.2898
     22 O         138.9031  137.4399  164.2327 O.3     1  UNL1       -0.4628
     23 H         137.5304  140.7770  165.9225 H       1  UNL1        0.1565
     24 C         143.9747  144.6525  163.8975 C.3     1  UNL1        0.0320
     25 C         144.4819  143.7421  164.9764 C.3     1  UNL1        0.0327
     26 C         141.2230  141.7969  167.3943 C.ar    1  UNL1        0.2249
     27 C         140.9968  140.3175  167.2949 C.ar    1  UNL1        0.0593
     28 C         141.8568  139.4863  166.3896 C.ar    1  UNL1        0.0254
     29 C         142.9431  140.1347  165.5837 C.ar    1  UNL1        0.0990
     30 N         143.8032  139.3036  164.6784 N.ar    1  UNL1       -0.2400
     31 C         144.8895  139.9519  163.8725 C.ar    1  UNL1        0.1281
     32 C         145.1157  141.4315  163.9718 C.ar    1  UNL1        0.1566
     33 F         146.2020  142.0798  163.1659 F       1  UNL1       -0.2028
     34 C         144.2557  142.2626  164.8771 C.ar    1  UNL1        0.0261
     35 C         143.1693  141.6142  165.6831 C.ar    1  UNL1        0.1002
     36 N         142.3093  142.4453  166.5883 N.ar    1  UNL1       -0.2104
     37 O         140.3629  142.6281  168.2995 O.3     1  UNL1       -0.4602
     38 C         140.8815  143.0588  169.6395 C.3     1  UNL1        0.2072
     39 C         141.6942  142.1098  170.4695 C.3     1  UNL1        0.0488
     40 C         141.0089  141.0905  171.3305 C.3     1  UNL1        0.0207
     41 N         138.7482  140.4983  170.1954 N.3     1  UNL1       -0.3211
     42 C         140.0932  140.0778  170.7093 C.3     1  UNL1        0.0653
     43 H         138.2633  139.6883  169.8093 H       1  UNL1        0.1189
     44 H         138.8674  141.2024  169.4671 H       1  UNL1        0.1189
@<TRIPOS>BOND
     1    41    42    1
     2    42    40    1
     3    40    39    1
     4    39    38    1
     5    38    37    1
     6    37    26    1
     7    26    27   ar
     8    27    28   ar
     9    28    29   ar
    10    29    30   ar
    11    30    31   ar
    12    31    32   ar
    13    32    33    1
    14    32    34   ar
    15    34    25    1
    16    25    24    1
    17    24     1    1
    18     1     2    1
    19     2     3    1
    20     3     4    1
    21     4     9    1
    22     9    11    1
    23    11    12    1
    24    12    13   ar
    25    13    14   ar
    26    14    15   ar
    27    15    16   ar
    28    16    17   ar
    29    16    18    1
    30    18    19   am
    31    19    20    2
    32    19    21    1
    33    21    22    1
    34     4     5    1
    35     5     6    1
    36     4     7    1
    37     7     8    1
    38    34    35   ar
    39    35    36   ar
    40    36    26   ar
    41    35    29   ar
    42     6     1    1
    43     8     1    1
    44    17    12   ar
    45    22    15    1
    46    41    43    1
    47    41    44    1
    48     9    10    1
    49    18    23    1
@<TRIPOS>MOLECULE
*****
 44 49 0 0 0
SMALL
GASTEIGER

@<TRIPOS>ATOM
      1 C         137.9008  142.6755  163.8618 C.3     1  UNL1        0.0932
      2 C         138.0621  141.4383  164.6945 C.3     1  UNL1        0.0286
      3 C         138.0617  140.0886  164.0402 C.3     1  UNL1        0.0193
      4 C         137.9001  139.9759  162.5531 C.3     1  UNL1        0.0700
      5 C         137.7388  141.2131  161.7204 C.3     1  UNL1        0.0193
      6 C         137.7392  142.5629  162.3748 C.3     1  UNL1        0.0286
      7 C         137.8940  140.7373  162.8666 C.3     1  UNL1        0.1562
      8 O         137.8943  141.9578  163.4582 O.3     1  UNL1       -0.3572
      9 N         137.8997  138.6262  161.8989 N.3     1  UNL1       -0.2926
     10 H         137.1736  138.6463  161.1828 H       1  UNL1        0.1236
     11 C         139.1448  138.1124  161.2387 C.3     1  UNL1        0.1152
     12 C         140.4868  138.3940  161.8465 C.ar    1  UNL1        0.0765
     13 C         141.5795  138.9895  161.0088 C.ar    1  UNL1        0.0193
     14 C         142.9216  139.2711  161.6166 C.ar    1  UNL1        0.0411
     15 C         143.1711  138.9572  163.0620 C.ar    1  UNL1        0.1708
     16 C         142.0785  138.3617  163.8997 C.ar    1  UNL1        0.1682
     17 N         140.7364  138.0801  163.2919 N.ar    1  UNL1       -0.2304
     18 N         142.3280  138.0478  165.3451 N.am    1  UNL1       -0.2639
     19 C         143.6701  138.3294  165.9529 C.2     1  UNL1        0.2718
     20 O         143.9196  138.0155  167.3983 O.2     1  UNL1       -0.2707
     21 C         144.7628  138.9249  165.1152 C.3     1  UNL1        0.2898
     22 O         144.5133  139.2388  163.6698 O.3     1  UNL1       -0.4628
     23 H         141.6109  137.6570  165.8948 H       1  UNL1        0.1565
     24 C         137.9012  144.0252  164.5161 C.3     1  UNL1        0.0320
     25 C         139.2003  144.7087  164.8248 C.3     1  UNL1        0.0327
     26 C         142.9186  142.4522  165.9790 C.ar    1  UNL1        0.2249
     27 C         144.0651  142.3537  165.0168 C.ar    1  UNL1        0.0593
     28 C         143.9722  143.0074  163.6700 C.ar    1  UNL1        0.0254
     29 C         142.7328  143.7596  163.2853 C.ar    1  UNL1        0.0990
     30 N         142.6399  144.4133  161.9384 N.ar    1  UNL1       -0.2400
     31 C         141.4005  145.1655  161.5537 C.ar    1  UNL1        0.1281
     32 C         140.2539  145.2640  162.5158 C.ar    1  UNL1        0.1566
     33 F         139.0145  146.0161  162.1311 F       1  UNL1       -0.2028
     34 C         140.3468  144.6103  163.8627 C.ar    1  UNL1        0.0261
     35 C         141.5863  143.8581  164.2474 C.ar    1  UNL1        0.1002
     36 N         141.6792  143.2044  165.5943 N.ar    1  UNL1       -0.2104
     37 O         143.0115  141.7985  167.3259 O.3     1  UNL1       -0.4602
     38 C         141.7630  141.3790  168.0437 C.3     1  UNL1        0.2072
     39 C         141.1246  142.3014  169.0395 C.3     1  UNL1        0.0488
     40 C         139.9114  141.8579  169.8021 C.3     1  UNL1        0.0207
     41 N         139.8797  139.6369  171.1496 N.3     1  UNL1       -0.3211
     42 C         139.5751  140.3990  169.8941 C.3     1  UNL1        0.0653
     43 H         139.5871  138.6662  171.0376 H       1  UNL1        0.1189
     44 H         139.3766  140.0555  171.9319 H       1  UNL1        0.1189
@<TRIPOS>BOND
     1    41    42    1
     2    42    40    1
     3    40    39    1
     4    39    38    1
     5    38    37    1
     6    37    26    1
     7    26    27   ar
     8    27    28   ar
     9    28    29   ar
    10    29    30   ar
    11    30    31   ar
    12    31    32   ar
    13    32    33    1
    14    32    34   ar
    15    34    25    1
    16    25    24    1
    17    24     1    1
    18     1     2    1
    19     2     3    1
    20     3     4    1
    21     4     9    1
    22     9    11    1
    23    11    12    1
    24    12    13   ar
    25    13    14   ar
    26    14    15   ar
    27    15    16   ar
    28    16    17   ar
    29    16    18    1
    30    18    19   am
    31    19    20    2
    32    19    21    1
    33    21    22    1
    34     4     5    1
    35     5     6    1
    36     4     7    1
    37     7     8    1
    38    34    35   ar
    39    35    36   ar
    40    36    26   ar
    41    35    29   ar
    42     6     1    1
    43     8     1    1
    44    17    12   ar
    45    22    15    1
    46    41    43    1
    47    41    44    1
    48     9    10    1
    49    18    23    1
@<TRIPOS>MOLECULE
*****
 44 49 0 0 0
SMALL
GASTEIGER

@<TRIPOS>ATOM
      1 C         143.6538  142.1806  163.5294 C.3     1  UNL1        0.0932
      2 C         143.6102  142.8146  162.1707 C.3     1  UNL1        0.0286
      3 C         142.8159  144.0683  161.9533 C.3     1  UNL1        0.0193
      4 C         142.0652  144.6880  163.0945 C.3     1  UNL1        0.0700
      5 C         142.1089  144.0540  164.4533 C.3     1  UNL1        0.0193
      6 C         142.9032  142.8003  164.6707 C.3     1  UNL1        0.0286
      7 C         142.4867  144.0009  163.2622 C.3     1  UNL1        0.1562
      8 O         143.2049  142.8672  163.4589 O.3     1  UNL1       -0.3572
      9 N         141.2709  145.9417  162.8771 N.3     1  UNL1       -0.2926
     10 H         141.7623  146.4818  162.1649 H       1  UNL1        0.1236
     11 C         139.8376  145.8557  162.4430 C.3     1  UNL1        0.1152
     12 C         139.1898  144.5158  162.2558 C.ar    1  UNL1        0.0765
     13 C         138.4368  143.8821  163.3878 C.ar    1  UNL1        0.0193
     14 C         137.7890  142.5422  163.2006 C.ar    1  UNL1        0.0411
     15 C         137.8941  141.8361  161.8814 C.ar    1  UNL1        0.1708
     16 C         138.6470  142.4698  160.7494 C.ar    1  UNL1        0.1682
     17 N         139.2949  143.8097  160.9366 N.ar    1  UNL1       -0.2304
     18 N         138.7521  141.7636  159.4302 N.am    1  UNL1       -0.2639
     19 C         138.1043  140.4238  159.2430 C.2     1  UNL1        0.2718
     20 O         138.2094  139.7177  157.9238 O.2     1  UNL1       -0.2707
     21 C         137.3513  139.7900  160.3750 C.3     1  UNL1        0.2898
     22 O         137.2462  140.4962  161.6942 O.3     1  UNL1       -0.4628
     23 H         139.2463  142.1796  158.6872 H       1  UNL1        0.1565
     24 C         144.4481  140.9269  163.7469 C.3     1  UNL1        0.0320
     25 C         143.7986  139.7257  164.3677 C.3     1  UNL1        0.0327
     26 C         139.7667  140.2203  166.3039 C.ar    1  UNL1        0.2249
     27 C         138.5506  139.6134  165.6694 C.ar    1  UNL1        0.0593
     28 C         138.6783  138.8417  164.3896 C.ar    1  UNL1        0.0254
     29 C         140.0223  138.6768  163.7442 C.ar    1  UNL1        0.0990
     30 N         140.1501  137.9051  162.4643 N.ar    1  UNL1       -0.2400
     31 C         141.4940  137.7402  161.8189 C.ar    1  UNL1        0.1281
     32 C         142.7103  138.3471  162.4534 C.ar    1  UNL1        0.1566
     33 F         144.0542  138.1822  161.8080 F       1  UNL1       -0.2028
     34 C         142.5825  139.1188  163.7332 C.ar    1  UNL1        0.0261
     35 C         141.2384  139.2837  164.3786 C.ar    1  UNL1        0.1002
     36 N         141.1107  140.0554  165.6585 N.ar    1  UNL1       -0.2104
     37 O         139.6389  140.9920  167.5838 O.3     1  UNL1       -0.4602
     38 C         140.6230  142.0771  167.9068 C.3     1  UNL1        0.2072
     39 C         140.4703  142.8775  169.1661 C.3     1  UNL1        0.0488
     40 C         139.9405  142.2262  170.4092 C.3     1  UNL1        0.0207
     41 N         139.9334  139.7204  171.0953 N.3     1  UNL1       -0.3211
     42 C         140.6450  141.0367  170.9912 C.3     1  UNL1        0.0653
     43 H         140.5571  139.0287  171.5112 H       1  UNL1        0.1189
     44 H         139.6541  139.4103  170.1646 H       1  UNL1        0.1189
@<TRIPOS>BOND
     1    41    42    1
     2    42    40    1
     3    40    39    1
     4    39    38    1
     5    38    37    1
     6    37    26    1
     7    26    27   ar
     8    27    28   ar
     9    28    29   ar
    10    29    30   ar
    11    30    31   ar
    12    31    32   ar
    13    32    33    1
    14    32    34   ar
    15    34    25    1
    16    25    24    1
    17    24     1    1
    18     1     2    1
    19     2     3    1
    20     3     4    1
    21     4     9    1
    22     9    11    1
    23    11    12    1
    24    12    13   ar
    25    13    14   ar
    26    14    15   ar
    27    15    16   ar
    28    16    17   ar
    29    16    18    1
    30    18    19   am
    31    19    20    2
    32    19    21    1
    33    21    22    1
    34     4     5    1
    35     5     6    1
    36     4     7    1
    37     7     8    1
    38    34    35   ar
    39    35    36   ar
    40    36    26   ar
    41    35    29   ar
    42     6     1    1
    43     8     1    1
    44    17    12   ar
    45    22    15    1
    46    41    43    1
    47    41    44    1
    48     9    10    1
    49    18    23    1
@<TRIPOS>MOLECULE
*****
 44 49 0 0 0
SMALL
GASTEIGER

@<TRIPOS>ATOM
      1 C         138.3800  139.9772  164.3406 C.3     1  UNL1        0.0932
      2 C         138.1183  140.1033  162.8690 C.3     1  UNL1        0.0286
      3 C         137.8385  141.4495  162.2696 C.3     1  UNL1        0.0193
      4 C         137.8204  142.6698  163.1418 C.3     1  UNL1        0.0700
      5 C         138.0821  142.5437  164.6134 C.3     1  UNL1        0.0193
      6 C         138.3619  141.1974  165.2128 C.3     1  UNL1        0.0286
      7 C         137.9784  141.9534  163.5157 C.3     1  UNL1        0.1562
      8 O         138.2314  140.7361  164.0577 O.3     1  UNL1       -0.3572
      9 N         137.5406  144.0160  162.5424 N.3     1  UNL1       -0.2926
     10 H         136.7237  144.3894  163.0257 H       1  UNL1        0.1236
     11 C         138.5913  145.0859  162.5780 C.3     1  UNL1        0.1152
     12 C         140.0346  144.7264  162.3837 C.ar    1  UNL1        0.0765
     13 C         141.0784  145.2918  163.3008 C.ar    1  UNL1        0.0193
     14 C         142.5216  144.9323  163.1066 C.ar    1  UNL1        0.0411
     15 C         142.9212  144.0075  161.9953 C.ar    1  UNL1        0.1708
     16 C         141.8775  143.4422  161.0782 C.ar    1  UNL1        0.1682
     17 N         140.4342  143.8016  161.2724 N.ar    1  UNL1       -0.2304
     18 N         142.2771  142.5173  159.9669 N.am    1  UNL1       -0.2639
     19 C         143.7203  142.1579  159.7726 C.2     1  UNL1        0.2718
     20 O         144.1199  141.2331  158.6613 O.2     1  UNL1       -0.2707
     21 C         144.7641  142.7233  160.6897 C.3     1  UNL1        0.2898
     22 O         144.3645  143.6481  161.8010 O.3     1  UNL1       -0.4628
     23 H         141.5921  142.1463  159.3650 H       1  UNL1        0.1565
     24 C         138.6598  138.6310  164.9400 C.3     1  UNL1        0.0320
     25 C         140.0759  138.1729  165.1272 C.3     1  UNL1        0.0327
     26 C         142.4215  141.5990  166.8622 C.ar    1  UNL1        0.2249
     27 C         143.5254  142.2309  166.0672 C.ar    1  UNL1        0.0593
     28 C         143.8475  141.7208  164.6939 C.ar    1  UNL1        0.0254
     29 C         143.0656  140.5788  164.1155 C.ar    1  UNL1        0.0990
     30 N         143.3877  140.0686  162.7422 N.ar    1  UNL1       -0.2400
     31 C         142.6059  138.9266  162.1639 C.ar    1  UNL1        0.1281
     32 C         141.5019  138.2947  162.9588 C.ar    1  UNL1        0.1566
     33 F         140.7201  137.1527  162.3805 F       1  UNL1       -0.2028
     34 C         141.1798  138.8048  164.3322 C.ar    1  UNL1        0.0261
     35 C         141.9617  139.9469  164.9105 C.ar    1  UNL1        0.1002
     36 N         141.6396  140.4570  166.2839 N.ar    1  UNL1       -0.2104
     37 O         142.0994  142.1091  168.2355 O.3     1  UNL1       -0.4602
     38 C         140.8159  142.8459  168.4800 C.3     1  UNL1        0.2072
     39 C         140.1556  142.7762  169.8251 C.3     1  UNL1        0.0488
     40 C         139.2710  141.6140  170.1671 C.3     1  UNL1        0.0207
     41 N         139.3143  139.6831  168.4294 N.3     1  UNL1       -0.3211
     42 C         139.6777  140.2228  169.7809 C.3     1  UNL1        0.0653
     43 H         139.6675  138.7307  168.3374 H       1  UNL1        0.1189
     44 H         139.7286  140.2708  167.7059 H       1  UNL1        0.1189
@<TRIPOS>BOND
     1    41    42    1
     2    42    40    1
     3    40    39    1
     4    39    38    1
     5    38    37    1
     6    37    26    1
     7    26    27   ar
     8    27    28   ar
     9    28    29   ar
    10    29    30   ar
    11    30    31   ar
    12    31    32   ar
    13    32    33    1
    14    32    34   ar
    15    34    25    1
    16    25    24    1
    17    24     1    1
    18     1     2    1
    19     2     3    1
    20     3     4    1
    21     4     9    1
    22     9    11    1
    23    11    12    1
    24    12    13   ar
    25    13    14   ar
    26    14    15   ar
    27    15    16   ar
    28    16    17   ar
    29    16    18    1
    30    18    19   am
    31    19    20    2
    32    19    21    1
    33    21    22    1
    34     4     5    1
    35     5     6    1
    36     4     7    1
    37     7     8    1
    38    34    35   ar
    39    35    36   ar
    40    36    26   ar
    41    35    29   ar
    42     6     1    1
    43     8     1    1
    44    17    12   ar
    45    22    15    1
    46    41    43    1
    47    41    44    1
    48     9    10    1
    49    18    23    1
@<TRIPOS>MOLECULE
*****
 44 49 0 0 0
SMALL
GASTEIGER

@<TRIPOS>ATOM
      1 C         137.8621  142.3638  164.1807 C.3     1  UNL1        0.0932
      2 C         138.3711  141.2484  165.0449 C.3     1  UNL1        0.0286
      3 C         138.5394  139.8725  164.4718 C.3     1  UNL1        0.0193
      4 C         138.1988  139.6119  163.0344 C.3     1  UNL1        0.0700
      5 C         137.6897  140.7272  162.1701 C.3     1  UNL1        0.0193
      6 C         137.5214  142.1032  162.7433 C.3     1  UNL1        0.0286
      7 C         138.0900  140.3823  163.3037 C.3     1  UNL1        0.1562
      8 O         137.9378  141.6265  163.8219 O.3     1  UNL1       -0.3572
      9 N         138.3671  138.2360  162.4613 N.3     1  UNL1       -0.2926
     10 H         137.4495  137.9421  162.1267 H       1  UNL1        0.1236
     11 C         139.3324  138.0049  161.3366 C.3     1  UNL1        0.1152
     12 C         140.5890  138.8192  161.2475 C.ar    1  UNL1        0.0765
     13 C         141.7778  138.4582  162.0880 C.ar    1  UNL1        0.0193
     14 C         143.0344  139.2724  161.9989 C.ar    1  UNL1        0.0411
     15 C         143.1022  140.4477  161.0693 C.ar    1  UNL1        0.1708
     16 C         141.9134  140.8087  160.2288 C.ar    1  UNL1        0.1682
     17 N         140.6567  139.9944  160.3179 N.ar    1  UNL1       -0.2304
     18 N         141.9812  141.9840  159.2993 N.am    1  UNL1       -0.2639
     19 C         143.2377  142.7983  159.2101 C.2     1  UNL1        0.2718
     20 O         143.3055  143.9736  158.2806 O.2     1  UNL1       -0.2707
     21 C         144.4266  142.4373  160.0506 C.3     1  UNL1        0.2898
     22 O         144.3588  141.2620  160.9802 O.3     1  UNL1       -0.4628
     23 H         141.2009  142.2209  158.7476 H       1  UNL1        0.1565
     24 C         137.6937  143.7397  164.7538 C.3     1  UNL1        0.0320
     25 C         138.8921  144.6180  164.9602 C.3     1  UNL1        0.0327
     26 C         142.4549  142.2730  166.3945 C.ar    1  UNL1        0.2249
     27 C         143.6576  142.1207  165.5111 C.ar    1  UNL1        0.0593
     28 C         143.6726  142.7500  164.1496 C.ar    1  UNL1        0.0254
     29 C         142.4850  143.5317  163.6715 C.ar    1  UNL1        0.0990
     30 N         142.5000  144.1610  162.3100 N.ar    1  UNL1       -0.2400
     31 C         141.3125  144.9427  161.8319 C.ar    1  UNL1        0.1281
     32 C         140.1098  145.0950  162.7153 C.ar    1  UNL1        0.1566
     33 F         138.9222  145.8766  162.2372 F       1  UNL1       -0.2028
     34 C         140.0947  144.4657  164.0768 C.ar    1  UNL1        0.0261
     35 C         141.2824  143.6840  164.5549 C.ar    1  UNL1        0.1002
     36 N         141.2674  143.0546  165.9164 N.ar    1  UNL1       -0.2104
     37 O         142.4399  141.6436  167.7560 O.3     1  UNL1       -0.4602
     38 C         143.3138  142.1914  168.8451 C.3     1  UNL1        0.2072
     39 C         142.6993  142.9086  170.0104 C.3     1  UNL1        0.0488
     40 C         141.2995  143.4385  169.9115 C.3     1  UNL1        0.0207
     41 N         140.3486  142.1632  171.9657 N.3     1  UNL1       -0.3211
     42 C         140.1722  142.7082  170.5794 C.3     1  UNL1        0.0653
     43 H         139.4888  141.7008  172.2612 H       1  UNL1        0.1189
     44 H         140.5614  142.9274  172.6069 H       1  UNL1        0.1189
@<TRIPOS>BOND
     1    41    42    1
     2    42    40    1
     3    40    39    1
     4    39    38    1
     5    38    37    1
     6    37    26    1
     7    26    27   ar
     8    27    28   ar
     9    28    29   ar
    10    29    30   ar
    11    30    31   ar
    12    31    32   ar
    13    32    33    1
    14    32    34   ar
    15    34    25    1
    16    25    24    1
    17    24     1    1
    18     1     2    1
    19     2     3    1
    20     3     4    1
    21     4     9    1
    22     9    11    1
    23    11    12    1
    24    12    13   ar
    25    13    14   ar
    26    14    15   ar
    27    15    16   ar
    28    16    17   ar
    29    16    18    1
    30    18    19   am
    31    19    20    2
    32    19    21    1
    33    21    22    1
    34     4     5    1
    35     5     6    1
    36     4     7    1
    37     7     8    1
    38    34    35   ar
    39    35    36   ar
    40    36    26   ar
    41    35    29   ar
    42     6     1    1
    43     8     1    1
    44    17    12   ar
    45    22    15    1
    46    41    43    1
    47    41    44    1
    48     9    10    1
    49    18    23    1
@<TRIPOS>MOLECULE
*****
 44 49 0 0 0
SMALL
GASTEIGER

@<TRIPOS>ATOM
      1 C         141.8548  137.9676  164.3526 C.3     1  UNL1        0.0932
      2 C         140.4397  137.9632  164.8503 C.3     1  UNL1        0.0286
      3 C         139.3014  137.9365  163.8739 C.3     1  UNL1        0.0193
      4 C         139.5780  137.9142  162.3997 C.3     1  UNL1        0.0700
      5 C         140.9930  137.9186  161.9020 C.3     1  UNL1        0.0193
      6 C         142.1314  137.9453  162.8785 C.3     1  UNL1        0.0286
      7 C         140.2345  137.9284  162.8964 C.3     1  UNL1        0.1562
      8 O         141.2639  137.9526  163.7793 O.3     1  UNL1       -0.3572
      9 N         138.4396  137.8875  161.4233 N.3     1  UNL1       -0.2926
     10 H         137.9109  137.0356  161.6107 H       1  UNL1        0.1236
     11 C         137.4497  139.0140  161.3945 C.3     1  UNL1        0.1152
     12 C         137.9007  140.4162  161.6780 C.ar    1  UNL1        0.0765
     13 C         137.3442  141.1594  162.8562 C.ar    1  UNL1        0.0193
     14 C         137.7953  142.5616  163.1396 C.ar    1  UNL1        0.0411
     15 C         138.8027  143.2207  162.2449 C.ar    1  UNL1        0.1708
     16 C         139.3591  142.4776  161.0667 C.ar    1  UNL1        0.1682
     17 N         138.9081  141.0754  160.7832 N.ar    1  UNL1       -0.2304
     18 N         140.3665  143.1368  160.1719 N.am    1  UNL1       -0.2639
     19 C         140.8175  144.5390  160.4553 C.2     1  UNL1        0.2718
     20 O         141.8250  145.1981  159.5605 O.2     1  UNL1       -0.2707
     21 C         140.2611  145.2821  161.6336 C.3     1  UNL1        0.2898
     22 O         139.2537  144.6230  162.5283 O.3     1  UNL1       -0.4628
     23 H         140.7317  142.6491  159.3986 H       1  UNL1        0.1565
     24 C         142.9931  137.9943  165.3290 C.3     1  UNL1        0.0320
     25 C         143.7373  139.2725  165.5786 C.3     1  UNL1        0.0327
     26 C         140.4039  141.6613  167.4310 C.ar    1  UNL1        0.2249
     27 C         139.9449  142.9348  166.7849 C.ar    1  UNL1        0.0593
     28 C         140.5972  143.4120  165.5212 C.ar    1  UNL1        0.0254
     29 C         141.7083  142.6158  164.9037 C.ar    1  UNL1        0.0990
     30 N         142.3605  143.0931  163.6401 N.ar    1  UNL1       -0.2400
     31 C         143.4716  142.2968  163.0226 C.ar    1  UNL1        0.1281
     32 C         143.9306  141.0233  163.6687 C.ar    1  UNL1        0.1566
     33 F         145.0418  140.2270  163.0512 F       1  UNL1       -0.2028
     34 C         143.2784  140.5460  164.9324 C.ar    1  UNL1        0.0261
     35 C         142.1672  141.3423  165.5499 C.ar    1  UNL1        0.1002
     36 N         141.5150  140.8651  166.8135 N.ar    1  UNL1       -0.2104
     37 O         139.7517  141.1840  168.6947 O.3     1  UNL1       -0.4602
     38 C         140.4905  140.2610  169.6177 C.3     1  UNL1        0.2072
     39 C         141.4809  140.8156  170.5983 C.3     1  UNL1        0.0488
     40 C         142.9012  141.0520  170.1775 C.3     1  UNL1        0.0207
     41 N         143.4143  143.5028  170.8704 N.3     1  UNL1       -0.3211
     42 C         143.3566  142.4353  169.8183 C.3     1  UNL1        0.0653
     43 H         143.7432  144.3737  170.4534 H       1  UNL1        0.1189
     44 H         144.0554  143.2167  171.6103 H       1  UNL1        0.1189
@<TRIPOS>BOND
     1    41    42    1
     2    42    40    1
     3    40    39    1
     4    39    38    1
     5    38    37    1
     6    37    26    1
     7    26    27   ar
     8    27    28   ar
     9    28    29   ar
    10    29    30   ar
    11    30    31   ar
    12    31    32   ar
    13    32    33    1
    14    32    34   ar
    15    34    25    1
    16    25    24    1
    17    24     1    1
    18     1     2    1
    19     2     3    1
    20     3     4    1
    21     4     9    1
    22     9    11    1
    23    11    12    1
    24    12    13   ar
    25    13    14   ar
    26    14    15   ar
    27    15    16   ar
    28    16    17   ar
    29    16    18    1
    30    18    19   am
    31    19    20    2
    32    19    21    1
    33    21    22    1
    34     4     5    1
    35     5     6    1
    36     4     7    1
    37     7     8    1
    38    34    35   ar
    39    35    36   ar
    40    36    26   ar
    41    35    29   ar
    42     6     1    1
    43     8     1    1
    44    17    12   ar
    45    22    15    1
    46    41    43    1
    47    41    44    1
    48     9    10    1
    49    18    23    1
