@<TRIPOS>MOLECULE
*****
 31 34 0 0 0
SMALL
GASTEIGER

@<TRIPOS>ATOM
      1 C         141.0701  145.2681  159.1349 C.ar    1  UNL1        0.1893
      2 N         142.2929  145.7470  158.4100 N.ar    1  UNL1       -0.1240
      3 N         141.8810  146.1575  157.0273 N.ar    1  UNL1       -0.1244
      4 C         140.4037  145.9322  156.8977 C.ar    1  UNL1        0.1836
      5 S         139.9025  145.3826  158.2002 S.2     1  UNL1       -0.0157
      6 C         140.2069  145.4880  161.5755 C.2     1  UNL1        0.2591
      7 O         139.4376  146.7175  161.1927 O.2     1  UNL1       -0.2717
      8 N         141.0232  144.7633  160.5466 N.am    1  UNL1       -0.2605
      9 H         141.5281  143.9564  160.7979 H       1  UNL1        0.1569
     10 C         140.1600  144.9832  162.9872 C.3     1  UNL1        0.2135
     11 C         141.4059  144.4604  163.6386 C.ar    1  UNL1        0.0134
     12 C         141.4126  143.0930  164.2553 C.ar    1  UNL1       -0.0015
     13 C         142.6585  142.5701  164.9067 C.ar    1  UNL1       -0.0002
     14 C         143.8977  143.4145  164.9415 C.ar    1  UNL1       -0.0000
     15 C         143.8910  144.7819  164.3248 C.ar    1  UNL1       -0.0002
     16 C         142.6451  145.3048  163.6733 C.ar    1  UNL1       -0.0015
     17 C         137.7649  144.0544  163.3756 C.3     1  UNL1        0.1751
     18 O         138.8671  145.0013  163.7476 O.3     1  UNL1       -0.3400
     19 N         139.5733  146.2082  155.6794 N.pl3   1  UNL1       -0.3115
     20 H         138.9587  145.5199  155.3362 H       1  UNL1        0.1487
     21 C         139.6793  147.5330  154.9838 C.3     1  UNL1        0.0924
     22 C         140.3942  147.7956  153.6915 C.3     1  UNL1        0.0428
     23 C         140.2457  149.2527  153.3675 C.3     1  UNL1        0.0955
     24 N         139.4391  149.8905  154.4594 N.pl3   1  UNL1       -0.2753
     25 C         139.0890  148.8277  155.4584 C.3     1  UNL1        0.1131
     26 C         139.0507  151.3373  154.5386 C.ar    1  UNL1        0.2394
     27 N         138.5731  152.0539  153.3105 N.ar    1  UNL1       -0.2092
     28 C         138.1847  153.5005  153.3897 C.ar    1  UNL1        0.1243
     29 C         138.2740  154.2306  154.6971 C.ar    1  UNL1        0.1429
     30 N         138.7516  153.5139  155.9252 N.ar    1  UNL1       -0.1420
     31 N         139.1399  152.0673  155.8459 N.ar    1  UNL1       -0.1124
@<TRIPOS>BOND
     1    17    18    1
     2    10    18    1
     3    10     6    1
     4     6     7    2
     5     6     8   am
     6     8     1    1
     7     1     2   ar
     8     2     3   ar
     9     3     4   ar
    10     4    19    1
    11    21    19    1
    12    21    22    1
    13    22    23    1
    14    23    24    1
    15    24    26    1
    16    26    27   ar
    17    27    28   ar
    18    28    29   ar
    19    29    30   ar
    20    30    31   ar
    21    24    25    1
    22     4     5   ar
    23    10    11    1
    24    11    12   ar
    25    12    13   ar
    26    13    14   ar
    27    14    15   ar
    28    15    16   ar
    29     5     1   ar
    30    16    11   ar
    31    25    21    1
    32    31    26   ar
    33     8     9    1
    34    19    20    1
@<TRIPOS>MOLECULE
*****
 31 34 0 0 0
SMALL
GASTEIGER

@<TRIPOS>ATOM
      1 C         142.6870  139.2202  159.6105 C.ar    1  UNL1        0.1893
      2 N         143.8796  139.5763  158.7733 N.ar    1  UNL1       -0.1240
      3 N         143.6572  139.0308  157.3939 N.ar    1  UNL1       -0.1244
      4 C         142.3271  138.3374  157.3786 C.ar    1  UNL1        0.1836
      5 S         141.7275  138.4545  158.7485 S.2     1  UNL1       -0.0157
      6 C         143.2286  138.8110  162.1183 C.2     1  UNL1        0.2591
      7 O         144.1668  137.7051  161.7353 O.2     1  UNL1       -0.2717
      8 N         142.4887  139.5685  161.0559 N.am    1  UNL1       -0.2605
      9 H         141.8729  140.2944  161.3073 H       1  UNL1        0.1569
     10 C         143.0303  139.1594  163.5638 C.3     1  UNL1        0.2135
     11 C         143.5800  140.4447  164.1077 C.ar    1  UNL1        0.0134
     12 C         144.8358  141.0273  163.5302 C.ar    1  UNL1       -0.0015
     13 C         145.3856  142.3126  164.0741 C.ar    1  UNL1       -0.0002
     14 C         144.6795  143.0152  165.1956 C.ar    1  UNL1       -0.0000
     15 C         143.4238  142.4326  165.7732 C.ar    1  UNL1       -0.0002
     16 C         142.8740  141.1473  165.2293 C.ar    1  UNL1       -0.0015
     17 C         141.2803  137.2668  163.8887 C.3     1  UNL1        0.1751
     18 O         142.2823  138.2226  164.4653 O.3     1  UNL1       -0.3400
     19 N         141.7057  137.6480  156.2001 N.pl3   1  UNL1       -0.3115
     20 H         141.2162  138.1717  155.5253 H       1  UNL1        0.1487
     21 C         141.8301  136.1608  156.0500 C.3     1  UNL1        0.0924
     22 C         141.0628  135.3046  155.0864 C.3     1  UNL1        0.0428
     23 C         141.5020  133.8832  155.2779 C.3     1  UNL1        0.0955
     24 N         142.5408  133.8608  156.3597 N.pl3   1  UNL1       -0.2753
     25 C         142.7435  135.2684  156.8369 C.3     1  UNL1        0.1131
     26 C         143.2521  132.6444  156.8742 C.ar    1  UNL1        0.2394
     27 N         142.6659  131.2820  156.6500 N.ar    1  UNL1       -0.2092
     28 C         143.3772  130.0657  157.1644 C.ar    1  UNL1        0.1243
     29 C         144.6745  130.2118  157.9030 C.ar    1  UNL1        0.1429
     30 N         145.2607  131.5742  158.1271 N.ar    1  UNL1       -0.1420
     31 N         144.5494  132.7905  157.6127 N.ar    1  UNL1       -0.1124
@<TRIPOS>BOND
     1    17    18    1
     2    10    18    1
     3    10     6    1
     4     6     7    2
     5     6     8   am
     6     8     1    1
     7     1     2   ar
     8     2     3   ar
     9     3     4   ar
    10     4    19    1
    11    21    19    1
    12    21    22    1
    13    22    23    1
    14    23    24    1
    15    24    26    1
    16    26    27   ar
    17    27    28   ar
    18    28    29   ar
    19    29    30   ar
    20    30    31   ar
    21    24    25    1
    22     4     5   ar
    23    10    11    1
    24    11    12   ar
    25    12    13   ar
    26    13    14   ar
    27    14    15   ar
    28    15    16   ar
    29     5     1   ar
    30    16    11   ar
    31    25    21    1
    32    31    26   ar
    33     8     9    1
    34    19    20    1
@<TRIPOS>MOLECULE
*****
 31 34 0 0 0
SMALL
GASTEIGER

@<TRIPOS>ATOM
      1 C         143.1586  139.5180  159.4705 C.ar    1  UNL1        0.1893
      2 N         144.2350  140.0897  158.5960 N.ar    1  UNL1       -0.1240
      3 N         143.9959  139.6119  157.1944 N.ar    1  UNL1       -0.1244
      4 C         142.7718  138.7450  157.2026 C.ar    1  UNL1        0.1836
      5 S         142.2543  138.6870  158.6093 S.2     1  UNL1       -0.0157
      6 C         143.5867  138.7465  161.9141 C.2     1  UNL1        0.2591
      7 O         144.3076  137.5336  161.4049 O.2     1  UNL1       -0.2717
      8 N         143.0122  139.7387  160.9469 N.am    1  UNL1       -0.2605
      9 H         142.5391  140.5347  161.2811 H       1  UNL1        0.1569
     10 C         143.4403  138.9671  163.3906 C.3     1  UNL1        0.2135
     11 C         142.0992  138.8076  164.0434 C.ar    1  UNL1        0.0134
     12 C         141.4662  139.9694  164.7502 C.ar    1  UNL1       -0.0015
     13 C         140.1251  139.8099  165.4030 C.ar    1  UNL1       -0.0002
     14 C         139.4172  138.4886  165.3492 C.ar    1  UNL1       -0.0000
     15 C         140.0502  137.3268  164.6424 C.ar    1  UNL1       -0.0002
     16 C         141.3913  137.4863  163.9895 C.ar    1  UNL1       -0.0015
     17 C         145.3432  140.6437  163.9545 C.3     1  UNL1        0.1751
     18 O         144.6348  139.3473  164.2142 O.3     1  UNL1       -0.3400
     19 N         142.1707  138.0569  156.0130 N.pl3   1  UNL1       -0.3115
     20 H         141.8172  138.5885  155.2635 H       1  UNL1        0.1487
     21 C         142.1082  136.5590  155.9652 C.3     1  UNL1        0.0924
     22 C         141.1200  135.7421  155.1867 C.3     1  UNL1        0.0428
     23 C         141.4240  134.2932  155.4280 C.3     1  UNL1        0.0955
     24 N         142.6001  134.2146  156.3556 N.pl3   1  UNL1       -0.2753
     25 C         143.0230  135.6149  156.6877 C.3     1  UNL1        0.1131
     26 C         143.2409  132.9565  156.8623 C.ar    1  UNL1        0.2394
     27 N         144.5689  133.0184  157.5570 N.ar    1  UNL1       -0.2092
     28 C         145.2096  131.7604  158.0636 C.ar    1  UNL1        0.1243
     29 C         144.5224  130.4404  157.8756 C.ar    1  UNL1        0.1429
     30 N         143.1944  130.3784  157.1809 N.ar    1  UNL1       -0.1420
     31 N         142.5537  131.6365  156.6743 N.ar    1  UNL1       -0.1124
@<TRIPOS>BOND
     1    17    18    1
     2    10    18    1
     3    10     6    1
     4     6     7    2
     5     6     8   am
     6     8     1    1
     7     1     2   ar
     8     2     3   ar
     9     3     4   ar
    10     4    19    1
    11    21    19    1
    12    21    22    1
    13    22    23    1
    14    23    24    1
    15    24    26    1
    16    26    27   ar
    17    27    28   ar
    18    28    29   ar
    19    29    30   ar
    20    30    31   ar
    21    24    25    1
    22     4     5   ar
    23    10    11    1
    24    11    12   ar
    25    12    13   ar
    26    13    14   ar
    27    14    15   ar
    28    15    16   ar
    29     5     1   ar
    30    16    11   ar
    31    25    21    1
    32    31    26   ar
    33     8     9    1
    34    19    20    1
@<TRIPOS>MOLECULE
*****
 31 34 0 0 0
SMALL
GASTEIGER

@<TRIPOS>ATOM
      1 C         139.6414  139.8797  160.2216 C.ar    1  UNL1        0.1893
      2 N         138.5477  139.4301  159.2988 N.ar    1  UNL1       -0.1240
      3 N         139.1824  138.9454  158.0291 N.ar    1  UNL1       -0.1244
      4 C         140.6685  139.0955  158.1672 C.ar    1  UNL1        0.1836
      5 S         140.9522  139.6730  159.5222 S.2     1  UNL1       -0.0157
      6 C         138.5724  139.7305  162.5848 C.2     1  UNL1        0.2591
      7 O         137.8724  138.4645  162.1882 O.2     1  UNL1       -0.2717
      8 N         139.4569  140.4381  161.6015 N.am    1  UNL1       -0.2605
      9 H         139.9163  141.2691  161.8618 H       1  UNL1        0.1569
     10 C         138.3878  140.2889  163.9647 C.3     1  UNL1        0.2135
     11 C         138.5580  141.7593  164.2077 C.ar    1  UNL1        0.0134
     12 C         139.6700  142.2504  165.0866 C.ar    1  UNL1       -0.0015
     13 C         139.8403  143.7208  165.3297 C.ar    1  UNL1       -0.0002
     14 C         138.8986  144.7000  164.6939 C.ar    1  UNL1       -0.0000
     15 C         137.7867  144.2089  163.8151 C.ar    1  UNL1       -0.0002
     16 C         137.6163  142.7385  163.5720 C.ar    1  UNL1       -0.0015
     17 C         139.0053  138.3278  165.5530 C.3     1  UNL1        0.1751
     18 O         138.0330  139.3770  165.1016 O.3     1  UNL1       -0.3400
     19 N         141.6914  138.7320  157.1319 N.pl3   1  UNL1       -0.3115
     20 H         142.2665  139.4295  156.7421 H       1  UNL1        0.1487
     21 C         141.8378  137.3059  156.6907 C.3     1  UNL1        0.0924
     22 C         141.2171  136.6922  155.4708 C.3     1  UNL1        0.0428
     23 C         141.6264  135.2501  155.4181 C.3     1  UNL1        0.0955
     24 N         142.5001  134.9725  156.6054 N.pl3   1  UNL1       -0.2753
     25 C         142.6307  136.2431  157.3919 C.3     1  UNL1        0.1131
     26 C         143.1321  133.6555  156.9463 C.ar    1  UNL1        0.2394
     27 N         144.5217  133.6140  157.5095 N.ar    1  UNL1       -0.2092
     28 C         145.1537  132.2971  157.8504 C.ar    1  UNL1        0.1243
     29 C         144.3961  131.0217  157.6281 C.ar    1  UNL1        0.1429
     30 N         143.0065  131.0632  157.0649 N.ar    1  UNL1       -0.1420
     31 N         142.3745  132.3801  156.7240 N.ar    1  UNL1       -0.1124
@<TRIPOS>BOND
     1    17    18    1
     2    10    18    1
     3    10     6    1
     4     6     7    2
     5     6     8   am
     6     8     1    1
     7     1     2   ar
     8     2     3   ar
     9     3     4   ar
    10     4    19    1
    11    21    19    1
    12    21    22    1
    13    22    23    1
    14    23    24    1
    15    24    26    1
    16    26    27   ar
    17    27    28   ar
    18    28    29   ar
    19    29    30   ar
    20    30    31   ar
    21    24    25    1
    22     4     5   ar
    23    10    11    1
    24    11    12   ar
    25    12    13   ar
    26    13    14   ar
    27    14    15   ar
    28    15    16   ar
    29     5     1   ar
    30    16    11   ar
    31    25    21    1
    32    31    26   ar
    33     8     9    1
    34    19    20    1
@<TRIPOS>MOLECULE
*****
 31 34 0 0 0
SMALL
GASTEIGER

@<TRIPOS>ATOM
      1 C         141.6197  139.0706  161.3481 C.ar    1  UNL1        0.1893
      2 N         142.5044  137.9072  161.6852 N.ar    1  UNL1       -0.1240
      3 N         143.1271  137.4143  160.4127 N.ar    1  UNL1       -0.1244
      4 C         142.6271  138.2731  159.2891 C.ar    1  UNL1        0.1836
      5 S         141.6955  139.2968  159.8672 S.2     1  UNL1       -0.0157
      6 C         139.3488  139.5528  162.5146 C.2     1  UNL1        0.2591
      7 O         138.7123  138.4403  161.7353 O.2     1  UNL1       -0.2717
      8 N         140.8025  139.8679  162.3210 N.am    1  UNL1       -0.2605
      9 H         141.2203  140.5980  162.8324 H       1  UNL1        0.1569
     10 C         138.5317  140.3501  163.4875 C.3     1  UNL1        0.2135
     11 C         138.7623  140.1983  164.9619 C.ar    1  UNL1        0.0134
     12 C         138.0510  139.1206  165.7252 C.ar    1  UNL1       -0.0015
     13 C         138.2815  138.9687  167.1997 C.ar    1  UNL1       -0.0002
     14 C         139.2234  139.8946  167.9107 C.ar    1  UNL1       -0.0000
     15 C         139.9347  140.9723  167.1474 C.ar    1  UNL1       -0.0002
     16 C         139.7041  141.1242  165.6730 C.ar    1  UNL1       -0.0015
     17 C         137.8593  142.3962  162.0345 C.3     1  UNL1        0.1751
     18 O         137.4840  141.2992  162.9862 O.3     1  UNL1       -0.3400
     19 N         142.9943  138.1329  157.8415 N.pl3   1  UNL1       -0.3115
     20 H         143.5582  138.8139  157.4085 H       1  UNL1        0.1487
     21 C         142.5024  136.9550  157.0536 C.3     1  UNL1        0.0924
     22 C         141.2947  136.9314  156.1642 C.3     1  UNL1        0.0428
     23 C         141.1778  135.5558  155.5778 C.3     1  UNL1        0.0955
     24 N         142.3131  134.7292  156.1047 N.pl3   1  UNL1       -0.2753
     25 C         143.1318  135.5940  157.0168 C.3     1  UNL1        0.1131
     26 C         142.5825  133.2904  155.7771 C.ar    1  UNL1        0.2394
     27 N         142.8913  132.8877  154.3655 N.ar    1  UNL1       -0.2092
     28 C         143.1607  131.4490  154.0379 C.ar    1  UNL1        0.1243
     29 C         143.1213  130.4129  155.1219 C.ar    1  UNL1        0.1429
     30 N         142.8125  130.8155  156.5334 N.ar    1  UNL1       -0.1420
     31 N         142.5431  132.2543  156.8610 N.ar    1  UNL1       -0.1124
@<TRIPOS>BOND
     1    17    18    1
     2    10    18    1
     3    10     6    1
     4     6     7    2
     5     6     8   am
     6     8     1    1
     7     1     2   ar
     8     2     3   ar
     9     3     4   ar
    10     4    19    1
    11    21    19    1
    12    21    22    1
    13    22    23    1
    14    23    24    1
    15    24    26    1
    16    26    27   ar
    17    27    28   ar
    18    28    29   ar
    19    29    30   ar
    20    30    31   ar
    21    24    25    1
    22     4     5   ar
    23    10    11    1
    24    11    12   ar
    25    12    13   ar
    26    13    14   ar
    27    14    15   ar
    28    15    16   ar
    29     5     1   ar
    30    16    11   ar
    31    25    21    1
    32    31    26   ar
    33     8     9    1
    34    19    20    1
@<TRIPOS>MOLECULE
*****
 31 34 0 0 0
SMALL
GASTEIGER

@<TRIPOS>ATOM
      1 C         140.6289  139.1302  160.7380 C.ar    1  UNL1        0.1893
      2 N         139.2394  138.8428  160.2514 N.ar    1  UNL1       -0.1240
      3 N         139.3136  138.5534  158.7815 N.ar    1  UNL1       -0.1244
      4 C         140.7491  138.6618  158.3596 C.ar    1  UNL1        0.1836
      5 S         141.5619  139.0183  159.5688 S.2     1  UNL1       -0.0157
      6 C         141.1815  138.3790  163.1629 C.2     1  UNL1        0.2591
      7 O         140.9574  136.9486  162.7709 O.2     1  UNL1       -0.2717
      8 N         141.0173  139.4698  162.1465 N.am    1  UNL1       -0.2605
      9 H         141.1644  140.4086  162.4038 H       1  UNL1        0.1569
     10 C         141.5699  138.7186  164.5714 C.3     1  UNL1        0.2135
     11 C         140.5094  138.9533  165.6060 C.ar    1  UNL1        0.0134
     12 C         139.1297  138.4001  165.4047 C.ar    1  UNL1       -0.0015
     13 C         138.0692  138.6347  166.4392 C.ar    1  UNL1       -0.0002
     14 C         138.3883  139.4226  167.6751 C.ar    1  UNL1       -0.0000
     15 C         139.7680  139.9757  167.8764 C.ar    1  UNL1       -0.0002
     16 C         140.8285  139.7411  166.8419 C.ar    1  UNL1       -0.0015
     17 C         143.8117  140.0313  164.5425 C.3     1  UNL1        0.1751
     18 O         143.0187  138.8236  164.9454 O.3     1  UNL1       -0.3400
     19 N         141.2786  138.4509  156.9721 N.pl3   1  UNL1       -0.3115
     20 H         141.4506  139.2244  156.3880 H       1  UNL1        0.1487
     21 C         141.5460  137.0613  156.4747 C.3     1  UNL1        0.0924
     22 C         140.7968  136.3560  155.3832 C.3     1  UNL1        0.0428
     23 C         141.3974  134.9918  155.2153 C.3     1  UNL1        0.0955
     24 N         142.5178  134.8539  156.2031 N.pl3   1  UNL1       -0.2753
     25 C         142.6097  136.1329  156.9814 C.3     1  UNL1        0.1131
     26 C         143.3928  133.6486  156.3812 C.ar    1  UNL1        0.2394
     27 N         144.2273  133.5040  157.6193 N.ar    1  UNL1       -0.2092
     28 C         145.1022  132.2987  157.7974 C.ar    1  UNL1        0.1243
     29 C         145.1427  131.2380  156.7375 C.ar    1  UNL1        0.1429
     30 N         144.3082  131.3826  155.4995 N.ar    1  UNL1       -0.1420
     31 N         143.4333  132.5879  155.3214 N.ar    1  UNL1       -0.1124
@<TRIPOS>BOND
     1    17    18    1
     2    10    18    1
     3    10     6    1
     4     6     7    2
     5     6     8   am
     6     8     1    1
     7     1     2   ar
     8     2     3   ar
     9     3     4   ar
    10     4    19    1
    11    21    19    1
    12    21    22    1
    13    22    23    1
    14    23    24    1
    15    24    26    1
    16    26    27   ar
    17    27    28   ar
    18    28    29   ar
    19    29    30   ar
    20    30    31   ar
    21    24    25    1
    22     4     5   ar
    23    10    11    1
    24    11    12   ar
    25    12    13   ar
    26    13    14   ar
    27    14    15   ar
    28    15    16   ar
    29     5     1   ar
    30    16    11   ar
    31    25    21    1
    32    31    26   ar
    33     8     9    1
    34    19    20    1
@<TRIPOS>MOLECULE
*****
 31 34 0 0 0
SMALL
GASTEIGER

@<TRIPOS>ATOM
      1 C         141.5329  139.1774  161.6471 C.ar    1  UNL1        0.1893
      2 N         142.4035  137.9888  161.9289 N.ar    1  UNL1       -0.1240
      3 N         143.0248  137.5523  160.6353 N.ar    1  UNL1       -0.1244
      4 C         142.5382  138.4711  159.5540 C.ar    1  UNL1        0.1836
      5 S         141.6161  139.4754  160.1794 S.2     1  UNL1       -0.0157
      6 C         139.5156  139.2973  163.2799 C.2     1  UNL1        0.2591
      7 O         139.1211  137.9023  162.8950 O.2     1  UNL1       -0.2717
      8 N         140.7215  139.9349  162.6560 N.am    1  UNL1       -0.2605
      9 H         140.9804  140.8505  162.9086 H       1  UNL1        0.1569
     10 C         138.7042  140.0548  164.2888 C.3     1  UNL1        0.2135
     11 C         138.6999  141.5548  164.2742 C.ar    1  UNL1        0.0134
     12 C         139.5907  142.3164  165.2103 C.ar    1  UNL1       -0.0015
     13 C         139.5865  143.8164  165.1959 C.ar    1  UNL1       -0.0002
     14 C         138.6914  144.5547  164.2452 C.ar    1  UNL1       -0.0000
     15 C         137.8006  143.7930  163.3091 C.ar    1  UNL1       -0.0002
     16 C         137.8048  142.2931  163.3236 C.ar    1  UNL1       -0.0015
     17 C         138.5258  138.9044  166.6114 C.3     1  UNL1        0.1751
     18 O         137.8970  139.3125  165.3122 O.3     1  UNL1       -0.3400
     19 N         142.9086  138.3983  158.1023 N.pl3   1  UNL1       -0.3115
     20 H         143.4065  139.1373  157.6836 H       1  UNL1        0.1487
     21 C         142.5204  137.1996  157.2884 C.3     1  UNL1        0.0924
     22 C         141.4206  137.1440  156.2698 C.3     1  UNL1        0.0428
     23 C         141.3843  135.7561  155.7021 C.3     1  UNL1        0.0955
     24 N         142.4617  134.9539  156.3698 N.pl3   1  UNL1       -0.2753
     25 C         143.1638  135.8461  157.3501 C.3     1  UNL1        0.1131
     26 C         142.7809  133.5126  156.1037 C.ar    1  UNL1        0.2394
     27 N         141.6718  132.5272  155.8826 N.ar    1  UNL1       -0.2092
     28 C         141.9911  131.0859  155.6166 C.ar    1  UNL1        0.1243
     29 C         143.4194  130.6300  155.5718 C.ar    1  UNL1        0.1429
     30 N         144.5285  131.6154  155.7929 N.ar    1  UNL1       -0.1420
     31 N         144.2092  133.0567  156.0589 N.ar    1  UNL1       -0.1124
@<TRIPOS>BOND
     1    17    18    1
     2    10    18    1
     3    10     6    1
     4     6     7    2
     5     6     8   am
     6     8     1    1
     7     1     2   ar
     8     2     3   ar
     9     3     4   ar
    10     4    19    1
    11    21    19    1
    12    21    22    1
    13    22    23    1
    14    23    24    1
    15    24    26    1
    16    26    27   ar
    17    27    28   ar
    18    28    29   ar
    19    29    30   ar
    20    30    31   ar
    21    24    25    1
    22     4     5   ar
    23    10    11    1
    24    11    12   ar
    25    12    13   ar
    26    13    14   ar
    27    14    15   ar
    28    15    16   ar
    29     5     1   ar
    30    16    11   ar
    31    25    21    1
    32    31    26   ar
    33     8     9    1
    34    19    20    1
@<TRIPOS>MOLECULE
*****
 31 34 0 0 0
SMALL
GASTEIGER

@<TRIPOS>ATOM
      1 C         142.8486  138.8771  159.1589 C.ar    1  UNL1        0.1893
      2 N         143.8497  139.5216  158.2465 N.ar    1  UNL1       -0.1240
      3 N         143.7717  138.8360  156.9147 N.ar    1  UNL1       -0.1244
      4 C         142.7224  137.7678  157.0040 C.ar    1  UNL1        0.1836
      5 S         142.1519  137.7932  158.3910 S.2     1  UNL1       -0.0157
      6 C         143.3245  138.5496  161.6919 C.2     1  UNL1        0.2591
      7 O         144.3184  137.4744  161.3662 O.2     1  UNL1       -0.2717
      8 N         142.5896  139.2509  160.5883 N.am    1  UNL1       -0.2605
      9 H         141.9373  139.9566  160.8022 H       1  UNL1        0.1569
     10 C         143.0655  138.9234  163.1213 C.3     1  UNL1        0.2135
     11 C         143.6371  140.1927  163.6800 C.ar    1  UNL1        0.0134
     12 C         142.8278  141.0255  164.6295 C.ar    1  UNL1       -0.0015
     13 C         143.3993  142.2949  165.1882 C.ar    1  UNL1       -0.0002
     14 C         144.7800  142.7315  164.7974 C.ar    1  UNL1       -0.0000
     15 C         145.5893  141.8987  163.8479 C.ar    1  UNL1       -0.0002
     16 C         145.0179  140.6293  163.2891 C.ar    1  UNL1       -0.0015
     17 C         141.1137  137.2306  163.3948 C.3     1  UNL1        0.1751
     18 O         142.2351  138.0279  163.9922 O.3     1  UNL1       -0.3400
     19 N         142.3152  136.8375  155.9000 N.pl3   1  UNL1       -0.3115
     20 H         141.8794  137.1933  155.0921 H       1  UNL1        0.1487
     21 C         142.5718  135.3651  156.0271 C.3     1  UNL1        0.0924
     22 C         143.7598  134.7309  156.6878 C.3     1  UNL1        0.0428
     23 C         143.6078  133.2422  156.5848 C.3     1  UNL1        0.0955
     24 N         142.3258  132.9563  155.8604 N.pl3   1  UNL1       -0.2753
     25 C         141.6856  134.2683  155.5157 C.3     1  UNL1        0.1131
     26 C         141.7799  131.5969  155.5373 C.ar    1  UNL1        0.2394
     27 N         140.4947  131.4666  154.7749 N.ar    1  UNL1       -0.2092
     28 C         139.9489  130.1074  154.4518 C.ar    1  UNL1        0.1243
     29 C         140.6882  128.8784  154.8912 C.ar    1  UNL1        0.1429
     30 N         141.9734  129.0087  155.6537 N.ar    1  UNL1       -0.1420
     31 N         142.5192  130.3680  155.9767 N.ar    1  UNL1       -0.1124
@<TRIPOS>BOND
     1    17    18    1
     2    10    18    1
     3    10     6    1
     4     6     7    2
     5     6     8   am
     6     8     1    1
     7     1     2   ar
     8     2     3   ar
     9     3     4   ar
    10     4    19    1
    11    21    19    1
    12    21    22    1
    13    22    23    1
    14    23    24    1
    15    24    26    1
    16    26    27   ar
    17    27    28   ar
    18    28    29   ar
    19    29    30   ar
    20    30    31   ar
    21    24    25    1
    22     4     5   ar
    23    10    11    1
    24    11    12   ar
    25    12    13   ar
    26    13    14   ar
    27    14    15   ar
    28    15    16   ar
    29     5     1   ar
    30    16    11   ar
    31    25    21    1
    32    31    26   ar
    33     8     9    1
    34    19    20    1
@<TRIPOS>MOLECULE
*****
 31 34 0 0 0
SMALL
GASTEIGER

@<TRIPOS>ATOM
      1 C         140.1889  139.4950  159.5465 C.ar    1  UNL1        0.1893
      2 N         138.8667  139.3987  158.8446 N.ar    1  UNL1       -0.1240
      3 N         139.1119  138.8620  157.4656 N.ar    1  UNL1       -0.1244
      4 C         140.5858  138.6266  157.3152 C.ar    1  UNL1        0.1836
      5 S         141.2513  139.0179  158.6012 S.2     1  UNL1       -0.0157
      6 C         140.3871  139.0132  162.0918 C.2     1  UNL1        0.2591
      7 O         140.1432  137.5557  161.8349 O.2     1  UNL1       -0.2717
      8 N         140.4100  139.9829  160.9476 N.am    1  UNL1       -0.2605
      9 H         140.5700  140.9396  161.1162 H       1  UNL1        0.1569
     10 C         140.6081  139.5011  163.4929 C.3     1  UNL1        0.2135
     11 C         141.9358  139.2925  164.1590 C.ar    1  UNL1        0.0134
     12 C         143.2040  139.5602  163.4040 C.ar    1  UNL1       -0.0015
     13 C         144.5317  139.3517  164.0700 C.ar    1  UNL1       -0.0002
     14 C         144.5913  138.8754  165.4912 C.ar    1  UNL1       -0.0000
     15 C         143.3231  138.6077  166.2462 C.ar    1  UNL1       -0.0002
     16 C         141.9953  138.8163  165.5801 C.ar    1  UNL1       -0.0015
     17 C         138.2400  139.4573  164.5608 C.3     1  UNL1        0.1751
     18 O         139.5015  140.1975  164.2279 O.3     1  UNL1       -0.3400
     19 N         141.2732  138.0936  156.0931 N.pl3   1  UNL1       -0.3115
     20 H         141.5751  138.7119  155.3890 H       1  UNL1        0.1487
     21 C         141.5007  136.6184  155.9440 C.3     1  UNL1        0.0924
     22 C         140.8297  135.7190  154.9485 C.3     1  UNL1        0.0428
     23 C         141.3535  134.3285  155.1534 C.3     1  UNL1        0.0955
     24 N         142.3481  134.3684  156.2754 N.pl3   1  UNL1       -0.2753
     25 C         142.4391  135.7837  156.7640 C.3     1  UNL1        0.1131
     26 C         143.1169  133.1984  156.8143 C.ar    1  UNL1        0.2394
     27 N         144.4502  133.4135  157.4670 N.ar    1  UNL1       -0.2092
     28 C         145.2188  132.2436  158.0058 C.ar    1  UNL1        0.1243
     29 C         144.6542  130.8586  157.8920 C.ar    1  UNL1        0.1429
     30 N         143.3209  130.6435  157.2394 N.ar    1  UNL1       -0.1420
     31 N         142.5522  131.8134  156.7005 N.ar    1  UNL1       -0.1124
@<TRIPOS>BOND
     1    17    18    1
     2    10    18    1
     3    10     6    1
     4     6     7    2
     5     6     8   am
     6     8     1    1
     7     1     2   ar
     8     2     3   ar
     9     3     4   ar
    10     4    19    1
    11    21    19    1
    12    21    22    1
    13    22    23    1
    14    23    24    1
    15    24    26    1
    16    26    27   ar
    17    27    28   ar
    18    28    29   ar
    19    29    30   ar
    20    30    31   ar
    21    24    25    1
    22     4     5   ar
    23    10    11    1
    24    11    12   ar
    25    12    13   ar
    26    13    14   ar
    27    14    15   ar
    28    15    16   ar
    29     5     1   ar
    30    16    11   ar
    31    25    21    1
    32    31    26   ar
    33     8     9    1
    34    19    20    1
