@<TRIPOS>MOLECULE
*****
 36 39 0 0 0
SMALL
GASTEIGER

@<TRIPOS>ATOM
      1 C         143.0103  138.4724  164.4948 C.ar    1  UNL1        0.1377
      2 C         144.1347  138.9910  163.6480 C.ar    1  UNL1        0.1397
      3 N         144.1015  138.8034  162.1602 N.ar    1  UNL1       -0.2027
      4 C         142.9438  138.0973  161.5190 C.ar    1  UNL1        0.2367
      5 N         141.8194  137.5787  162.3656 N.ar    1  UNL1       -0.1828
      6 C         141.8527  137.7663  163.8536 C.ar    1  UNL1        0.2339
      7 C         142.0417  139.7004  168.1422 C.3     1  UNL1        0.1109
      8 N         142.0084  139.5128  166.6544 N.am    1  UNL1       -0.2990
      9 C         143.0436  138.6600  165.9826 C.2     1  UNL1        0.2532
     10 O         144.1121  137.9949  166.7987 O.2     1  UNL1       -0.2699
     11 H         141.3072  139.9494  166.1187 H       1  UNL1        0.1498
     12 N         145.2924  139.6972  164.2892 N.pl3   1  UNL1       -0.3178
     13 H         145.8214  139.2439  164.9849 H       1  UNL1        0.1482
     14 C         145.6441  141.0939  163.8705 C.3     1  UNL1        0.0881
     15 C         144.5577  142.0946  163.6090 C.3     1  UNL1        0.0196
     16 C         143.7597  142.6509  164.7508 C.3     1  UNL1        0.0017
     17 C         142.6733  143.6515  164.4893 C.3     1  UNL1        0.0001
     18 C         142.3848  144.0958  163.0860 C.3     1  UNL1        0.0000
     19 C         141.4085  144.8491  163.9401 C.3     1  UNL1        0.0000
     20 C         140.8482  145.5109  162.7161 C.3     1  UNL1        0.0000
     21 C         141.8245  144.7576  161.8619 C.3     1  UNL1        0.0000
     22 C         143.1827  143.5395  161.9442 C.3     1  UNL1        0.0001
     23 C         144.2691  142.5388  162.2057 C.3     1  UNL1        0.0017
     24 C         142.9105  137.9097  160.0312 C.1     1  UNL1        0.1401
     25 N         142.8772  137.7221  158.5433 N.1     1  UNL1       -0.1876
     26 O         140.7283  137.2477  164.7002 O.3     1  UNL1       -0.4600
     27 C         139.3138  137.6388  164.3900 C.3     1  UNL1        0.2071
     28 C         138.9679  139.0799  164.1579 C.3     1  UNL1        0.0472
     29 C         138.8098  140.0104  165.3237 C.3     1  UNL1        0.0253
     30 C         138.4638  141.4513  165.0916 C.3     1  UNL1        0.0935
     31 N         138.2760  141.9618  163.6936 N.am    1  UNL1       -0.2795
     32 C         137.9301  143.4028  163.4615 C.2     1  UNL1        0.2261
     33 C         137.7720  144.3333  164.6273 C.3     1  UNL1        0.0948
     34 O         137.7423  143.9133  162.0636 O.2     1  UNL1       -0.2749
     35 C         138.4341  141.0313  162.5279 C.3     1  UNL1        0.0935
     36 C         138.7800  139.5903  162.7600 C.3     1  UNL1        0.0253
@<TRIPOS>BOND
     1     7     8    1
     2     8     9   am
     3     9    10    2
     4     9     1    1
     5     1     2   ar
     6     2    12    1
     7    12    14    1
     8    14    15    1
     9    15    16    1
    10    16    17    1
    11    17    18    1
    12    18    19    1
    13    19    20    1
    14    20    21    1
    15    18    22    1
    16    22    23    1
    17     2     3   ar
    18     3     4   ar
    19     4    24    1
    20    24    25    3
    21     4     5   ar
    22     5     6   ar
    23     6    26    1
    24    26    27    1
    25    27    28    1
    26    28    29    1
    27    29    30    1
    28    30    31    1
    29    31    32   am
    30    32    33    1
    31    32    34    2
    32    31    35    1
    33    35    36    1
    34     6     1   ar
    35    36    28    1
    36    23    15    1
    37    21    18    1
    38     8    11    1
    39    12    13    1
@<TRIPOS>MOLECULE
*****
 36 39 0 0 0
SMALL
GASTEIGER

@<TRIPOS>ATOM
      1 C         142.1108  138.2090  161.8951 C.ar    1  UNL1        0.1377
      2 C         143.4609  138.6837  162.3447 C.ar    1  UNL1        0.1397
      3 N         143.7635  138.8067  163.8087 N.ar    1  UNL1       -0.2027
      4 C         142.7160  138.4551  164.8232 C.ar    1  UNL1        0.2367
      5 N         141.3660  137.9805  164.3737 N.ar    1  UNL1       -0.1828
      6 C         141.0634  137.8574  162.9096 C.ar    1  UNL1        0.2339
      7 C         140.2050  138.4762  158.4244 C.3     1  UNL1        0.1109
      8 N         140.5075  138.5993  159.8884 N.am    1  UNL1       -0.2990
      9 C         141.8083  138.0859  160.4312 C.2     1  UNL1        0.2532
     10 O         142.8064  137.4495  159.5099 O.2     1  UNL1       -0.2699
     11 H         139.8524  139.0170  160.4930 H       1  UNL1        0.1498
     12 N         144.5084  139.0353  161.3302 N.pl3   1  UNL1       -0.3178
     13 H         145.2179  138.3889  161.1109 H       1  UNL1        0.1482
     14 C         144.4749  140.3716  160.6498 C.3     1  UNL1        0.0881
     15 C         143.9136  141.5640  161.3660 C.3     1  UNL1        0.0196
     16 C         144.7821  142.3572  162.2969 C.3     1  UNL1        0.0017
     17 C         144.2208  143.5497  163.0131 C.3     1  UNL1        0.0001
     18 C         142.7910  143.9490  162.7985 C.3     1  UNL1        0.0000
     19 C         143.3324  144.9530  163.7726 C.3     1  UNL1        0.0000
     20 C         141.9971  145.6354  163.8114 C.3     1  UNL1        0.0000
     21 C         141.4557  144.6314  162.8373 C.3     1  UNL1        0.0000
     22 C         141.9224  143.1558  161.8676 C.3     1  UNL1        0.0001
     23 C         142.4837  141.9634  161.1514 C.3     1  UNL1        0.0017
     24 C         143.0186  138.5782  166.2871 C.1     1  UNL1        0.1401
     25 N         143.3212  138.7013  167.7512 N.1     1  UNL1       -0.1876
     26 O         139.7134  137.3827  162.4602 O.3     1  UNL1       -0.4600
     27 C         138.4722  137.9924  163.0414 C.3     1  UNL1        0.2071
     28 C         138.3701  139.4807  163.1979 C.3     1  UNL1        0.0472
     29 C         138.5195  140.1043  164.5539 C.3     1  UNL1        0.0253
     30 C         138.4175  141.5926  164.7103 C.3     1  UNL1        0.0935
     31 N         138.1659  142.4573  163.5107 N.am    1  UNL1       -0.2795
     32 C         138.0639  143.9457  163.6672 C.2     1  UNL1        0.2261
     33 C         138.2133  144.5693  165.0232 C.3     1  UNL1        0.0948
     34 O         137.8123  144.8104  162.4676 O.2     1  UNL1       -0.2749
     35 C         138.0165  141.8338  162.1547 C.3     1  UNL1        0.0935
     36 C         138.1186  140.3455  161.9983 C.3     1  UNL1        0.0253
@<TRIPOS>BOND
     1     7     8    1
     2     8     9   am
     3     9    10    2
     4     9     1    1
     5     1     2   ar
     6     2    12    1
     7    12    14    1
     8    14    15    1
     9    15    16    1
    10    16    17    1
    11    17    18    1
    12    18    19    1
    13    19    20    1
    14    20    21    1
    15    18    22    1
    16    22    23    1
    17     2     3   ar
    18     3     4   ar
    19     4    24    1
    20    24    25    3
    21     4     5   ar
    22     5     6   ar
    23     6    26    1
    24    26    27    1
    25    27    28    1
    26    28    29    1
    27    29    30    1
    28    30    31    1
    29    31    32   am
    30    32    33    1
    31    32    34    2
    32    31    35    1
    33    35    36    1
    34     6     1   ar
    35    36    28    1
    36    23    15    1
    37    21    18    1
    38     8    11    1
    39    12    13    1
@<TRIPOS>MOLECULE
*****
 36 39 0 0 0
SMALL
GASTEIGER

@<TRIPOS>ATOM
      1 C         142.7089  138.5393  162.6871 C.ar    1  UNL1        0.1377
      2 C         143.8475  139.2748  163.3297 C.ar    1  UNL1        0.1397
      3 N         143.9262  139.3771  164.8241 N.ar    1  UNL1       -0.2027
      4 C         142.8663  138.7439  165.6760 C.ar    1  UNL1        0.2367
      5 N         141.7278  138.0084  165.0335 N.ar    1  UNL1       -0.1828
      6 C         141.6491  137.9061  163.5391 C.ar    1  UNL1        0.2339
      7 C         141.2339  138.5092  159.0029 C.3     1  UNL1        0.1109
      8 N         141.3126  138.6114  160.4973 N.am    1  UNL1       -0.2990
      9 C         142.6303  138.4371  161.1927 C.2     1  UNL1        0.2532
     10 O         143.8692  138.1604  160.3936 O.2     1  UNL1       -0.2699
     11 H         140.4995  138.7930  161.0218 H       1  UNL1        0.1498
     12 N         144.9073  139.9080  162.4778 N.pl3   1  UNL1       -0.3178
     13 H         145.3876  139.3693  161.8081 H       1  UNL1        0.1482
     14 C         145.2355  141.3619  162.6461 C.3     1  UNL1        0.0881
     15 C         144.1464  142.3904  162.5690 C.3     1  UNL1        0.0196
     16 C         143.3798  142.5768  161.2932 C.3     1  UNL1        0.0017
     17 C         142.2907  143.6053  161.2161 C.3     1  UNL1        0.0001
     18 C         141.9682  144.4475  162.4147 C.3     1  UNL1        0.0000
     19 C         141.0167  144.9071  161.3500 C.3     1  UNL1        0.0000
     20 C         140.4279  145.9021  162.3056 C.3     1  UNL1        0.0000
     21 C         141.3794  145.4426  163.3704 C.3     1  UNL1        0.0000
     22 C         142.7348  144.2611  163.6904 C.3     1  UNL1        0.0001
     23 C         143.8239  143.2326  163.7676 C.3     1  UNL1        0.0017
     24 C         142.9450  138.8462  167.1704 C.1     1  UNL1        0.1401
     25 N         143.0237  138.9485  168.6649 N.1     1  UNL1       -0.1876
     26 O         140.5105  137.1707  162.8966 O.3     1  UNL1       -0.4600
     27 C         139.0995  137.6246  163.1264 C.3     1  UNL1        0.2071
     28 C         138.7889  139.0891  163.2218 C.3     1  UNL1        0.0472
     29 C         138.7556  139.7630  164.5614 C.3     1  UNL1        0.0253
     30 C         138.4450  141.2274  164.6567 C.3     1  UNL1        0.0935
     31 N         138.1677  142.0178  163.4124 N.am    1  UNL1       -0.2795
     32 C         137.8571  143.4823  163.5077 C.2     1  UNL1        0.2261
     33 C         137.8238  144.1562  164.8473 C.3     1  UNL1        0.0948
     34 O         137.5798  144.2727  162.2634 O.2     1  UNL1       -0.2749
     35 C         138.2010  141.3439  162.0727 C.3     1  UNL1        0.0935
     36 C         138.5115  139.8795  161.9774 C.3     1  UNL1        0.0253
@<TRIPOS>BOND
     1     7     8    1
     2     8     9   am
     3     9    10    2
     4     9     1    1
     5     1     2   ar
     6     2    12    1
     7    12    14    1
     8    14    15    1
     9    15    16    1
    10    16    17    1
    11    17    18    1
    12    18    19    1
    13    19    20    1
    14    20    21    1
    15    18    22    1
    16    22    23    1
    17     2     3   ar
    18     3     4   ar
    19     4    24    1
    20    24    25    3
    21     4     5   ar
    22     5     6   ar
    23     6    26    1
    24    26    27    1
    25    27    28    1
    26    28    29    1
    27    29    30    1
    28    30    31    1
    29    31    32   am
    30    32    33    1
    31    32    34    2
    32    31    35    1
    33    35    36    1
    34     6     1   ar
    35    36    28    1
    36    23    15    1
    37    21    18    1
    38     8    11    1
    39    12    13    1
@<TRIPOS>MOLECULE
*****
 36 39 0 0 0
SMALL
GASTEIGER

@<TRIPOS>ATOM
      1 C         138.0492  140.2548  162.2005 C.ar    1  UNL1        0.1377
      2 C         138.5736  138.9328  162.6772 C.ar    1  UNL1        0.1397
      3 N         138.6527  138.6430  164.1468 N.ar    1  UNL1       -0.2027
      4 C         138.2073  139.6753  165.1398 C.ar    1  UNL1        0.2367
      5 N         137.6829  140.9973  164.6632 N.ar    1  UNL1       -0.1828
      6 C         137.6038  141.2871  163.1935 C.ar    1  UNL1        0.2339
      7 C         138.5827  142.0394  158.6961 C.3     1  UNL1        0.1109
      8 N         138.6618  141.7497  160.1657 N.am    1  UNL1       -0.2990
      9 C         137.9701  140.5446  160.7309 C.2     1  UNL1        0.2532
     10 O         137.1993  139.6293  159.8264 O.2     1  UNL1       -0.2699
     11 H         139.1677  142.3504  160.7594 H       1  UNL1        0.1498
     12 N         139.0190  137.9005  161.6842 N.pl3   1  UNL1       -0.3178
     13 H         138.4750  137.0935  161.5355 H       1  UNL1        0.1482
     14 C         140.2932  138.0977  160.9178 C.3     1  UNL1        0.0881
     15 C         141.4904  138.6967  161.5944 C.3     1  UNL1        0.0196
     16 C         142.0983  139.9607  161.0626 C.3     1  UNL1        0.0017
     17 C         143.2955  140.5597  161.7393 C.3     1  UNL1        0.0001
     18 C         143.8849  139.8948  162.9478 C.3     1  UNL1        0.0000
     19 C         144.7390  141.1059  162.7157 C.3     1  UNL1        0.0000
     20 C         145.5780  140.7419  163.9047 C.3     1  UNL1        0.0000
     21 C         144.7239  139.5308  164.1368 C.3     1  UNL1        0.0000
     22 C         143.2770  138.6308  163.4796 C.3     1  UNL1        0.0001
     23 C         142.0798  138.0318  162.8029 C.3     1  UNL1        0.0017
     24 C         138.2864  139.3856  166.6094 C.1     1  UNL1        0.1401
     25 N         138.3656  139.0959  168.0791 N.1     1  UNL1       -0.1876
     26 O         137.0793  142.6091  162.7169 O.3     1  UNL1       -0.4600
     27 C         137.6989  143.8834  163.2092 C.3     1  UNL1        0.2071
     28 C         139.1903  143.9972  163.3227 C.3     1  UNL1        0.0472
     29 C         139.8646  143.7355  164.6368 C.3     1  UNL1        0.0253
     30 C         141.3559  143.8493  164.7503 C.3     1  UNL1        0.0935
     31 N         142.1730  144.2247  163.5498 N.am    1  UNL1       -0.2795
     32 C         143.6644  144.3385  163.6633 C.2     1  UNL1        0.2261
     33 C         144.3386  144.0768  164.9774 C.3     1  UNL1        0.0948
     34 O         144.4815  144.7140  162.4628 O.2     1  UNL1       -0.2749
     35 C         141.4987  144.4864  162.2357 C.3     1  UNL1        0.0935
     36 C         140.0074  144.3726  162.1222 C.3     1  UNL1        0.0253
@<TRIPOS>BOND
     1     7     8    1
     2     8     9   am
     3     9    10    2
     4     9     1    1
     5     1     2   ar
     6     2    12    1
     7    12    14    1
     8    14    15    1
     9    15    16    1
    10    16    17    1
    11    17    18    1
    12    18    19    1
    13    19    20    1
    14    20    21    1
    15    18    22    1
    16    22    23    1
    17     2     3   ar
    18     3     4   ar
    19     4    24    1
    20    24    25    3
    21     4     5   ar
    22     5     6   ar
    23     6    26    1
    24    26    27    1
    25    27    28    1
    26    28    29    1
    27    29    30    1
    28    30    31    1
    29    31    32   am
    30    32    33    1
    31    32    34    2
    32    31    35    1
    33    35    36    1
    34     6     1   ar
    35    36    28    1
    36    23    15    1
    37    21    18    1
    38     8    11    1
    39    12    13    1
@<TRIPOS>MOLECULE
*****
 36 39 0 0 0
SMALL
GASTEIGER

@<TRIPOS>ATOM
      1 C         141.0603  138.2957  163.2182 C.ar    1  UNL1        0.1377
      2 C         139.6417  137.9711  162.8541 C.ar    1  UNL1        0.1397
      3 N         138.6006  137.8516  163.9272 N.ar    1  UNL1       -0.2027
      4 C         138.9778  138.0567  165.3644 C.ar    1  UNL1        0.2367
      5 N         140.3962  138.3813  165.7286 N.ar    1  UNL1       -0.1828
      6 C         141.4375  138.5008  164.6554 C.ar    1  UNL1        0.2339
      7 C         144.1197  139.6726  161.0983 C.3     1  UNL1        0.1109
      8 N         143.0785  139.5531  162.1714 N.am    1  UNL1       -0.2990
      9 C         142.1014  138.4152  162.1451 C.2     1  UNL1        0.2532
     10 O         142.1657  137.3968  161.0457 O.2     1  UNL1       -0.2699
     11 H         143.0364  140.2215  162.8930 H       1  UNL1        0.1498
     12 N         139.2645  137.7660  161.4169 N.pl3   1  UNL1       -0.3178
     13 H         139.3660  136.8784  161.0032 H       1  UNL1        0.1482
     14 C         138.7326  138.9131  160.6100 C.3     1  UNL1        0.0881
     15 C         138.7700  140.3045  161.1693 C.3     1  UNL1        0.0196
     16 C         137.6229  140.8137  161.9907 C.3     1  UNL1        0.0017
     17 C         137.6602  142.2051  162.5499 C.3     1  UNL1        0.0001
     18 C         138.8447  143.0872  162.2877 C.3     1  UNL1        0.0000
     19 C         137.9192  143.9188  163.1255 C.3     1  UNL1        0.0000
     20 C         138.8976  145.0549  163.0786 C.3     1  UNL1        0.0000
     21 C         139.8231  144.2233  162.2407 C.3     1  UNL1        0.0000
     22 C         139.9918  142.5779  161.4663 C.3     1  UNL1        0.0001
     23 C         139.9545  141.1866  160.9071 C.3     1  UNL1        0.0017
     24 C         137.9366  137.9372  166.4376 C.1     1  UNL1        0.1401
     25 N         136.8954  137.8178  167.5108 N.1     1  UNL1       -0.1876
     26 O         142.8560  138.8254  165.0195 O.3     1  UNL1       -0.4600
     27 C         143.2879  138.7930  166.4556 C.3     1  UNL1        0.2071
     28 C         142.6801  139.7445  167.4433 C.3     1  UNL1        0.0472
     29 C         142.3215  141.1379  167.0193 C.3     1  UNL1        0.0253
     30 C         141.7139  142.0894  168.0069 C.3     1  UNL1        0.0935
     31 N         141.4648  141.6474  169.4185 N.am    1  UNL1       -0.2795
     32 C         140.8570  142.5989  170.4061 C.2     1  UNL1        0.2261
     33 C         140.4984  143.9923  169.9821 C.3     1  UNL1        0.0948
     34 O         140.6079  142.1570  171.8177 O.2     1  UNL1       -0.2749
     35 C         141.8233  140.2540  169.8425 C.3     1  UNL1        0.0935
     36 C         142.4310  139.3026  168.8549 C.3     1  UNL1        0.0253
@<TRIPOS>BOND
     1     7     8    1
     2     8     9   am
     3     9    10    2
     4     9     1    1
     5     1     2   ar
     6     2    12    1
     7    12    14    1
     8    14    15    1
     9    15    16    1
    10    16    17    1
    11    17    18    1
    12    18    19    1
    13    19    20    1
    14    20    21    1
    15    18    22    1
    16    22    23    1
    17     2     3   ar
    18     3     4   ar
    19     4    24    1
    20    24    25    3
    21     4     5   ar
    22     5     6   ar
    23     6    26    1
    24    26    27    1
    25    27    28    1
    26    28    29    1
    27    29    30    1
    28    30    31    1
    29    31    32   am
    30    32    33    1
    31    32    34    2
    32    31    35    1
    33    35    36    1
    34     6     1   ar
    35    36    28    1
    36    23    15    1
    37    21    18    1
    38     8    11    1
    39    12    13    1
@<TRIPOS>MOLECULE
*****
 36 39 0 0 0
SMALL
GASTEIGER

@<TRIPOS>ATOM
      1 C         144.3979  140.3061  163.0101 C.ar    1  UNL1        0.1377
      2 C         143.9399  139.5893  161.7745 C.ar    1  UNL1        0.1397
      3 N         143.8991  140.3113  160.4604 N.ar    1  UNL1       -0.2027
      4 C         144.3161  141.7500  160.3817 C.ar    1  UNL1        0.2367
      5 N         144.7740  142.4668  161.6172 N.ar    1  UNL1       -0.1828
      6 C         144.8149  141.7448  162.9314 C.ar    1  UNL1        0.2339
      7 C         143.2440  138.7737  166.4843 C.3     1  UNL1        0.1109
      8 N         143.2031  139.4957  165.1702 N.am    1  UNL1       -0.2990
      9 C         144.4388  139.5842  164.3243 C.2     1  UNL1        0.2532
     10 O         145.7152  138.9508  164.7927 O.2     1  UNL1       -0.2699
     11 H         142.3653  139.9114  164.8628 H       1  UNL1        0.1498
     12 N         143.5229  138.1506  161.8532 N.pl3   1  UNL1       -0.3178
     13 H         144.1969  137.4507  162.0110 H       1  UNL1        0.1482
     14 C         142.0789  137.7784  161.6915 C.3     1  UNL1        0.0881
     15 C         141.1018  138.0684  162.7921 C.3     1  UNL1        0.0196
     16 C         140.8136  137.0273  163.8327 C.3     1  UNL1        0.0017
     17 C         139.8366  137.3172  164.9333 C.3     1  UNL1        0.0001
     18 C         139.1476  138.6482  164.9932 C.3     1  UNL1        0.0000
     19 C         138.6203  137.8848  166.1719 C.3     1  UNL1        0.0000
     20 C         137.7658  139.0583  166.5497 C.3     1  UNL1        0.0000
     21 C         138.2931  139.8217  165.3711 C.3     1  UNL1        0.0000
     22 C         139.4358  139.6893  163.9526 C.3     1  UNL1        0.0001
     23 C         140.4128  139.3994  162.8520 C.3     1  UNL1        0.0017
     24 C         144.2752  142.4719  159.0675 C.1     1  UNL1        0.1401
     25 N         144.2344  143.1938  157.7532 N.1     1  UNL1       -0.1876
     26 O         145.2729  142.4616  164.1669 O.3     1  UNL1       -0.4600
     27 C         144.2784  143.1830  165.0276 C.3     1  UNL1        0.2071
     28 C         142.9560  143.6012  164.4562 C.3     1  UNL1        0.0472
     29 C         141.7207  142.8091  164.7665 C.3     1  UNL1        0.0253
     30 C         140.3983  143.2273  164.1952 C.3     1  UNL1        0.0935
     31 N         140.3114  144.4376  163.3134 N.am    1  UNL1       -0.2795
     32 C         138.9889  144.8558  162.7421 C.2     1  UNL1        0.2261
     33 C         137.7536  144.0637  163.0524 C.3     1  UNL1        0.0948
     34 O         138.9020  146.0662  161.8603 O.2     1  UNL1       -0.2749
     35 C         141.5467  145.2298  163.0031 C.3     1  UNL1        0.0935
     36 C         142.8690  144.8116  163.5744 C.3     1  UNL1        0.0253
@<TRIPOS>BOND
     1     7     8    1
     2     8     9   am
     3     9    10    2
     4     9     1    1
     5     1     2   ar
     6     2    12    1
     7    12    14    1
     8    14    15    1
     9    15    16    1
    10    16    17    1
    11    17    18    1
    12    18    19    1
    13    19    20    1
    14    20    21    1
    15    18    22    1
    16    22    23    1
    17     2     3   ar
    18     3     4   ar
    19     4    24    1
    20    24    25    3
    21     4     5   ar
    22     5     6   ar
    23     6    26    1
    24    26    27    1
    25    27    28    1
    26    28    29    1
    27    29    30    1
    28    30    31    1
    29    31    32   am
    30    32    33    1
    31    32    34    2
    32    31    35    1
    33    35    36    1
    34     6     1   ar
    35    36    28    1
    36    23    15    1
    37    21    18    1
    38     8    11    1
    39    12    13    1
@<TRIPOS>MOLECULE
*****
 36 39 0 0 0
SMALL
GASTEIGER

@<TRIPOS>ATOM
      1 C         142.6453  143.9748  163.5533 C.ar    1  UNL1        0.1377
      2 C         143.4490  143.8040  162.2983 C.ar    1  UNL1        0.1397
      3 N         142.8814  144.2374  160.9793 N.ar    1  UNL1       -0.2027
      4 C         141.5099  144.8416  160.9152 C.ar    1  UNL1        0.2367
      5 N         140.7062  145.0124  162.1701 N.ar    1  UNL1       -0.1828
      6 C         141.2739  144.5790  163.4892 C.ar    1  UNL1        0.2339
      7 C         142.9756  142.2288  167.1019 C.3     1  UNL1        0.1109
      8 N         142.4079  142.6622  165.7829 N.am    1  UNL1       -0.2990
      9 C         143.2130  143.5414  164.8723 C.2     1  UNL1        0.2532
     10 O         144.5857  143.9871  165.2809 O.2     1  UNL1       -0.2699
     11 H         141.5069  142.3697  165.5147 H       1  UNL1        0.1498
     12 N         144.8205  143.1997  162.3625 N.pl3   1  UNL1       -0.3178
     13 H         145.5850  143.7445  162.6591 H       1  UNL1        0.1482
     14 C         145.0271  141.7656  161.9746 C.3     1  UNL1        0.0881
     15 C         144.1624  140.6951  162.5716 C.3     1  UNL1        0.0196
     16 C         144.3709  140.2694  163.9947 C.3     1  UNL1        0.0017
     17 C         143.5063  139.1990  164.5917 C.3     1  UNL1        0.0001
     18 C         142.4331  138.5542  163.7657 C.3     1  UNL1        0.0000
     19 C         142.3450  137.8867  165.1061 C.3     1  UNL1        0.0000
     20 C         141.2102  137.0402  164.6100 C.3     1  UNL1        0.0000
     21 C         141.2983  137.7078  163.2696 C.3     1  UNL1        0.0000
     22 C         142.2245  138.9799  162.3426 C.3     1  UNL1        0.0001
     23 C         143.0892  140.0504  161.7455 C.3     1  UNL1        0.0017
     24 C         140.9423  145.2750  159.5962 C.1     1  UNL1        0.1401
     25 N         140.3746  145.7085  158.2771 N.1     1  UNL1       -0.1876
     26 O         140.4701  144.7498  164.7440 O.3     1  UNL1       -0.4600
     27 C         139.1204  144.1065  164.8636 C.3     1  UNL1        0.2071
     28 C         138.7717  142.9293  164.0018 C.3     1  UNL1        0.0472
     29 C         139.1336  141.5425  164.4443 C.3     1  UNL1        0.0253
     30 C         138.7848  140.3653  163.5825 C.3     1  UNL1        0.0935
     31 N         138.0742  140.5750  162.2783 N.am    1  UNL1       -0.2795
     32 C         137.7255  139.3978  161.4165 C.2     1  UNL1        0.2261
     33 C         138.0874  138.0110  161.8590 C.3     1  UNL1        0.0948
     34 O         137.0149  139.6074  160.1122 O.2     1  UNL1       -0.2749
     35 C         137.7124  141.9618  161.8358 C.3     1  UNL1        0.0935
     36 C         138.0611  143.1389  162.6976 C.3     1  UNL1        0.0253
@<TRIPOS>BOND
     1     7     8    1
     2     8     9   am
     3     9    10    2
     4     9     1    1
     5     1     2   ar
     6     2    12    1
     7    12    14    1
     8    14    15    1
     9    15    16    1
    10    16    17    1
    11    17    18    1
    12    18    19    1
    13    19    20    1
    14    20    21    1
    15    18    22    1
    16    22    23    1
    17     2     3   ar
    18     3     4   ar
    19     4    24    1
    20    24    25    3
    21     4     5   ar
    22     5     6   ar
    23     6    26    1
    24    26    27    1
    25    27    28    1
    26    28    29    1
    27    29    30    1
    28    30    31    1
    29    31    32   am
    30    32    33    1
    31    32    34    2
    32    31    35    1
    33    35    36    1
    34     6     1   ar
    35    36    28    1
    36    23    15    1
    37    21    18    1
    38     8    11    1
    39    12    13    1
@<TRIPOS>MOLECULE
*****
 36 39 0 0 0
SMALL
GASTEIGER

@<TRIPOS>ATOM
      1 C         141.2583  144.2814  161.3404 C.ar    1  UNL1        0.1377
      2 C         141.9308  144.7272  162.6050 C.ar    1  UNL1        0.1397
      3 N         141.1137  144.9997  163.8330 N.ar    1  UNL1       -0.2027
      4 C         139.6242  144.8263  163.7966 C.ar    1  UNL1        0.2367
      5 N         138.9518  144.3805  162.5320 N.ar    1  UNL1       -0.1828
      6 C         139.7688  144.1080  161.3039 C.ar    1  UNL1        0.2339
      7 C         142.6410  144.5164  157.6279 C.3     1  UNL1        0.1109
      8 N         141.8239  144.7888  158.8559 N.am    1  UNL1       -0.2990
      9 C         142.0754  144.0089  160.1124 C.2     1  UNL1        0.2532
     10 O         143.1440  142.9566  160.1407 O.2     1  UNL1       -0.2699
     11 H         141.1226  145.4795  158.8373 H       1  UNL1        0.1498
     12 N         143.4203  144.9006  162.6415 N.pl3   1  UNL1       -0.3178
     13 H         143.8870  145.3105  161.8777 H       1  UNL1        0.1482
     14 C         144.1987  144.4494  163.8416 C.3     1  UNL1        0.0881
     15 C         144.0428  143.0480  164.3532 C.3     1  UNL1        0.0196
     16 C         144.7832  141.9223  163.6941 C.3     1  UNL1        0.0017
     17 C         144.6274  140.5209  164.2057 C.3     1  UNL1        0.0001
     18 C         143.7312  140.2452  165.3764 C.3     1  UNL1        0.0000
     19 C         144.2892  138.9071  164.9911 C.3     1  UNL1        0.0000
     20 C         143.5108  138.2632  166.1000 C.3     1  UNL1        0.0000
     21 C         142.9528  139.6012  166.4853 C.3     1  UNL1        0.0000
     22 C         142.9908  141.3709  166.0356 C.3     1  UNL1        0.0001
     23 C         143.1467  142.7723  165.5240 C.3     1  UNL1        0.0017
     24 C         138.8071  145.0988  165.0246 C.1     1  UNL1        0.1401
     25 N         137.9900  145.3713  166.2527 N.1     1  UNL1       -0.1876
     26 O         139.0964  143.6622  160.0394 O.3     1  UNL1       -0.4600
     27 C         138.3260  142.3754  160.0131 C.3     1  UNL1        0.2071
     28 C         138.6950  141.2611  160.9471 C.3     1  UNL1        0.0472
     29 C         139.9799  140.5125  160.7510 C.3     1  UNL1        0.0253
     30 C         140.3488  139.3983  161.6850 C.3     1  UNL1        0.0935
     31 N         139.4328  139.0327  162.8151 N.am    1  UNL1       -0.2795
     32 C         139.8017  137.9184  163.7492 C.2     1  UNL1        0.2261
     33 C         141.0867  137.1699  163.5530 C.3     1  UNL1        0.0948
     34 O         138.8857  137.5528  164.8793 O.2     1  UNL1       -0.2749
     35 C         138.1478  139.7813  163.0112 C.3     1  UNL1        0.0935
     36 C         137.7789  140.8955  162.0772 C.3     1  UNL1        0.0253
@<TRIPOS>BOND
     1     7     8    1
     2     8     9   am
     3     9    10    2
     4     9     1    1
     5     1     2   ar
     6     2    12    1
     7    12    14    1
     8    14    15    1
     9    15    16    1
    10    16    17    1
    11    17    18    1
    12    18    19    1
    13    19    20    1
    14    20    21    1
    15    18    22    1
    16    22    23    1
    17     2     3   ar
    18     3     4   ar
    19     4    24    1
    20    24    25    3
    21     4     5   ar
    22     5     6   ar
    23     6    26    1
    24    26    27    1
    25    27    28    1
    26    28    29    1
    27    29    30    1
    28    30    31    1
    29    31    32   am
    30    32    33    1
    31    32    34    2
    32    31    35    1
    33    35    36    1
    34     6     1   ar
    35    36    28    1
    36    23    15    1
    37    21    18    1
    38     8    11    1
    39    12    13    1
@<TRIPOS>MOLECULE
*****
 36 39 0 0 0
SMALL
GASTEIGER

@<TRIPOS>ATOM
      1 C         141.9335  144.4902  162.4400 C.ar    1  UNL1        0.1377
      2 C         140.5536  145.0707  162.3453 C.ar    1  UNL1        0.1397
      3 N         139.9968  145.4675  161.0102 N.ar    1  UNL1       -0.2027
      4 C         140.8199  145.2837  159.7697 C.ar    1  UNL1        0.2367
      5 N         142.1998  144.7032  159.8644 N.ar    1  UNL1       -0.1828
      6 C         142.7566  144.3065  161.1996 C.ar    1  UNL1        0.2339
      7 C         144.4852  143.9727  165.4351 C.3     1  UNL1        0.1109
      8 N         143.9285  144.3694  164.1000 N.am    1  UNL1       -0.2990
      9 C         142.4902  144.0935  163.7751 C.2     1  UNL1        0.2532
     10 O         141.6088  143.4209  164.7855 O.2     1  UNL1       -0.2699
     11 H         144.5070  144.8108  163.4369 H       1  UNL1        0.1498
     12 N         139.7305  145.2545  163.5857 N.pl3   1  UNL1       -0.3178
     13 H         140.0351  145.8689  164.2921 H       1  UNL1        0.1482
     14 C         138.4432  144.5022  163.7499 C.3     1  UNL1        0.0881
     15 C         138.3672  143.0536  163.3684 C.3     1  UNL1        0.0196
     16 C         138.7026  141.9940  164.3758 C.3     1  UNL1        0.0017
     17 C         138.6266  140.5454  163.9942 C.3     1  UNL1        0.0001
     18 C         138.2152  140.1562  162.6053 C.3     1  UNL1        0.0000
     19 C         138.4664  138.8581  163.3138 C.3     1  UNL1        0.0000
     20 C         138.1077  138.1074  162.0657 C.3     1  UNL1        0.0000
     21 C         137.8565  139.4055  161.3571 C.3     1  UNL1        0.0000
     22 C         137.8797  141.2157  161.5979 C.3     1  UNL1        0.0001
     23 C         137.9557  142.6644  161.9794 C.3     1  UNL1        0.0017
     24 C         140.2632  145.6804  158.4346 C.1     1  UNL1        0.1401
     25 N         139.7064  146.0772  157.0994 N.1     1  UNL1       -0.1876
     26 O         144.1365  143.7260  161.2942 O.3     1  UNL1       -0.4600
     27 C         144.3475  142.2556  161.0858 C.3     1  UNL1        0.2071
     28 C         143.9419  141.2812  162.1516 C.3     1  UNL1        0.0472
     29 C         144.9026  140.9249  163.2470 C.3     1  UNL1        0.0253
     30 C         144.4970  139.9504  164.3128 C.3     1  UNL1        0.0935
     31 N         143.1306  139.3323  164.2831 N.am    1  UNL1       -0.2795
     32 C         142.7250  138.3579  165.3490 C.2     1  UNL1        0.2261
     33 C         143.6857  138.0016  166.4444 C.3     1  UNL1        0.0948
     34 O         141.3586  137.7398  165.3194 O.2     1  UNL1       -0.2749
     35 C         142.1698  139.6887  163.1878 C.3     1  UNL1        0.0935
     36 C         142.5755  140.6631  162.1220 C.3     1  UNL1        0.0253
@<TRIPOS>BOND
     1     7     8    1
     2     8     9   am
     3     9    10    2
     4     9     1    1
     5     1     2   ar
     6     2    12    1
     7    12    14    1
     8    14    15    1
     9    15    16    1
    10    16    17    1
    11    17    18    1
    12    18    19    1
    13    19    20    1
    14    20    21    1
    15    18    22    1
    16    22    23    1
    17     2     3   ar
    18     3     4   ar
    19     4    24    1
    20    24    25    3
    21     4     5   ar
    22     5     6   ar
    23     6    26    1
    24    26    27    1
    25    27    28    1
    26    28    29    1
    27    29    30    1
    28    30    31    1
    29    31    32   am
    30    32    33    1
    31    32    34    2
    32    31    35    1
    33    35    36    1
    34     6     1   ar
    35    36    28    1
    36    23    15    1
    37    21    18    1
    38     8    11    1
    39    12    13    1
