@<TRIPOS>MOLECULE
*****
 29 32 0 0 0
SMALL
GASTEIGER

@<TRIPOS>ATOM
      1 C         139.0730  139.4076  166.4609 C.ar    1  UNL1        0.1345
      2 C         139.8795  140.5362  165.8900 C.ar    1  UNL1        0.0484
      3 C         140.4348  141.5946  166.7963 C.ar    1  UNL1        0.0449
      4 C         140.1837  141.5244  168.2735 C.ar    1  UNL1        0.0098
      5 C         139.3772  140.3959  168.8444 C.ar    1  UNL1        0.0972
      6 N         138.8218  139.3374  167.9380 N.ar    1  UNL1       -0.2293
      7 C         140.7390  142.5829  169.1798 C.3     1  UNL1        0.0251
      8 C         140.5711  143.8735  169.9254 C.3     1  UNL1        0.0048
      9 C         141.8688  143.1254  170.0039 C.3     1  UNL1        0.0048
     10 N         138.5176  138.3492  165.5546 N.pl3   1  UNL1       -0.2821
     11 H         137.9537  137.6315  165.9236 H       1  UNL1        0.1551
     12 C         139.4290  138.4547  161.1491 C.ar    1  UNL1        0.1683
     13 C         138.2984  139.2716  161.7009 C.ar    1  UNL1        0.1299
     14 N         137.9947  139.2365  163.1694 N.ar    1  UNL1       -0.2251
     15 C         138.8214  138.3844  164.0861 C.ar    1  UNL1        0.1527
     16 C         139.9519  137.5675  163.5343 C.ar    1  UNL1        0.1340
     17 N         140.2557  137.6026  162.0658 N.ar    1  UNL1       -0.2290
     18 N         140.0365  138.5250  158.2121 N.1     1  UNL1       -0.1892
     19 C         139.7327  138.4898  159.6806 C.1     1  UNL1        0.1214
     20 N         141.2414  142.7232  166.2255 N.pl3   1  UNL1       -0.3308
     21 H         141.5772  143.4360  166.8157 H       1  UNL1        0.1469
     22 C         141.5362  142.7657  164.7554 C.3     1  UNL1        0.1184
     23 C         140.8770  143.7965  163.8877 C.3     1  UNL1        0.1503
     24 C         141.5820  145.0861  163.5875 C.3     1  UNL1        0.1003
     25 N         140.9228  146.1169  162.7199 N.3     1  UNL1       -0.2933
     26 C         139.5585  145.8582  162.1524 C.3     1  UNL1        0.1011
     27 C         138.8535  144.5687  162.4526 C.3     1  UNL1        0.1592
     28 O         139.5128  143.5378  163.3203 O.3     1  UNL1       -0.3516
     29 H         141.5455  146.2771  161.9281 H       1  UNL1        0.1234
@<TRIPOS>BOND
     1    18    19    3
     2    19    12    1
     3    12    13   ar
     4    13    14   ar
     5    14    15   ar
     6    15    10    1
     7    10     1    1
     8     1     2   ar
     9     2     3   ar
    10     3    20    1
    11    20    22    1
    12    23    22    1
    13    23    24    1
    14    24    25    1
    15    25    26    1
    16    26    27    1
    17    27    28    1
    18     3     4   ar
    19     4     7    1
    20     7     8    1
    21     8     9    1
    22     4     5   ar
    23     5     6   ar
    24    15    16   ar
    25    16    17   ar
    26    17    12   ar
    27     6     1   ar
    28    28    23    1
    29     9     7    1
    30    10    11    1
    31    20    21    1
    32    25    29    1
@<TRIPOS>MOLECULE
*****
 29 32 0 0 0
SMALL
GASTEIGER

@<TRIPOS>ATOM
      1 C         143.2965  138.6053  165.7884 C.ar    1  UNL1        0.1345
      2 C         142.0914  138.0411  165.0959 C.ar    1  UNL1        0.0484
      3 C         142.0194  138.0398  163.5977 C.ar    1  UNL1        0.0449
      4 C         143.1525  138.6027  162.7919 C.ar    1  UNL1        0.0098
      5 C         144.3576  139.1668  163.4843 C.ar    1  UNL1        0.0972
      6 N         144.4296  139.1681  164.9826 N.ar    1  UNL1       -0.2293
      7 C         143.0804  138.6014  161.2935 C.3     1  UNL1        0.0251
      8 C         142.8456  137.8704  160.0050 C.3     1  UNL1        0.0048
      9 C         143.1905  139.3301  159.9871 C.3     1  UNL1        0.0048
     10 N         143.3685  138.6065  167.2867 N.pl3   1  UNL1       -0.2821
     11 H         143.9666  137.9775  167.7513 H       1  UNL1        0.1551
     12 C         140.8510  141.4857  169.6578 C.ar    1  UNL1        0.1683
     13 C         141.1251  141.7482  168.2067 C.ar    1  UNL1        0.1299
     14 N         141.9643  140.7885  167.4163 N.ar    1  UNL1       -0.2251
     15 C         142.5294  139.5662  168.0771 C.ar    1  UNL1        0.1527
     16 C         142.2552  139.3037  169.5282 C.ar    1  UNL1        0.1340
     17 N         141.4160  140.2634  170.3186 N.ar    1  UNL1       -0.2290
     18 N         139.1726  143.4051  171.2386 N.1     1  UNL1       -0.1892
     19 C         140.0118  142.4454  170.4482 C.1     1  UNL1        0.1214
     20 N         140.8143  137.4757  162.9052 N.pl3   1  UNL1       -0.3308
     21 H         140.9179  136.9860  162.0574 H       1  UNL1        0.1469
     22 C         139.4513  137.6577  163.5044 C.3     1  UNL1        0.1184
     23 C         138.7421  138.9725  163.3694 C.3     1  UNL1        0.1503
     24 C         137.9078  139.2534  162.1549 C.3     1  UNL1        0.1003
     25 N         137.1986  140.5682  162.0199 N.3     1  UNL1       -0.2933
     26 C         137.3237  141.6022  163.0994 C.3     1  UNL1        0.1011
     27 C         138.1580  141.3213  164.3139 C.3     1  UNL1        0.1592
     28 O         138.8672  140.0064  164.4489 O.3     1  UNL1       -0.3516
     29 H         136.2047  140.3585  161.9267 H       1  UNL1        0.1234
@<TRIPOS>BOND
     1    18    19    3
     2    19    12    1
     3    12    13   ar
     4    13    14   ar
     5    14    15   ar
     6    15    10    1
     7    10     1    1
     8     1     2   ar
     9     2     3   ar
    10     3    20    1
    11    20    22    1
    12    23    22    1
    13    23    24    1
    14    24    25    1
    15    25    26    1
    16    26    27    1
    17    27    28    1
    18     3     4   ar
    19     4     7    1
    20     7     8    1
    21     8     9    1
    22     4     5   ar
    23     5     6   ar
    24    15    16   ar
    25    16    17   ar
    26    17    12   ar
    27     6     1   ar
    28    28    23    1
    29     9     7    1
    30    10    11    1
    31    20    21    1
    32    25    29    1
@<TRIPOS>MOLECULE
*****
 29 32 0 0 0
SMALL
GASTEIGER

@<TRIPOS>ATOM
      1 C         140.1002  143.1029  164.7573 C.ar    1  UNL1        0.1345
      2 C         139.0903  142.3712  163.9237 C.ar    1  UNL1        0.0484
      3 C         138.5118  141.0762  164.4117 C.ar    1  UNL1        0.0449
      4 C         138.9431  140.5128  165.7333 C.ar    1  UNL1        0.0098
      5 C         139.9530  141.2444  166.5668 C.ar    1  UNL1        0.0972
      6 N         140.5316  142.5395  166.0788 N.ar    1  UNL1       -0.2293
      7 C         138.3646  139.2177  166.2212 C.3     1  UNL1        0.0251
      8 C         138.2000  137.7334  166.0802 C.3     1  UNL1        0.0048
      9 C         137.5271  138.4588  167.2075 C.3     1  UNL1        0.0048
     10 N         140.6787  144.3979  164.2693 N.pl3   1  UNL1       -0.2821
     11 H         141.0971  145.0212  164.9062 H       1  UNL1        0.1551
     12 C         140.5019  145.4342  159.8938 C.ar    1  UNL1        0.1683
     13 C         141.5545  144.4929  160.3997 C.ar    1  UNL1        0.1299
     14 N         141.6134  144.1474  161.8582 N.ar    1  UNL1       -0.2251
     15 C         140.6198  144.7434  162.8108 C.ar    1  UNL1        0.1527
     16 C         139.5672  145.6847  162.3049 C.ar    1  UNL1        0.1340
     17 N         139.5083  146.0302  160.8464 N.ar    1  UNL1       -0.2290
     18 N         140.3841  146.1251  156.9768 N.1     1  UNL1       -0.1892
     19 C         140.4430  145.7797  158.4353 C.1     1  UNL1        0.1214
     20 N         137.5018  140.3445  163.5782 N.pl3   1  UNL1       -0.3308
     21 H         136.5428  140.4212  163.7869 H       1  UNL1        0.1469
     22 C         137.9532  139.4959  162.4265 C.3     1  UNL1        0.1184
     23 C         139.3630  138.9861  162.3779 C.3     1  UNL1        0.1503
     24 C         139.6686  137.5833  162.8126 C.3     1  UNL1        0.1003
     25 N         141.0784  137.0735  162.7639 N.3     1  UNL1       -0.2933
     26 C         142.1827  137.9663  162.2805 C.3     1  UNL1        0.1011
     27 C         141.8770  139.3690  161.8459 C.3     1  UNL1        0.1592
     28 O         140.4671  139.8789  161.8945 O.3     1  UNL1       -0.3516
     29 H         141.0745  136.2545  162.1559 H       1  UNL1        0.1234
@<TRIPOS>BOND
     1    18    19    3
     2    19    12    1
     3    12    13   ar
     4    13    14   ar
     5    14    15   ar
     6    15    10    1
     7    10     1    1
     8     1     2   ar
     9     2     3   ar
    10     3    20    1
    11    20    22    1
    12    23    22    1
    13    23    24    1
    14    24    25    1
    15    25    26    1
    16    26    27    1
    17    27    28    1
    18     3     4   ar
    19     4     7    1
    20     7     8    1
    21     8     9    1
    22     4     5   ar
    23     5     6   ar
    24    15    16   ar
    25    16    17   ar
    26    17    12   ar
    27     6     1   ar
    28    28    23    1
    29     9     7    1
    30    10    11    1
    31    20    21    1
    32    25    29    1
@<TRIPOS>MOLECULE
*****
 29 32 0 0 0
SMALL
GASTEIGER

@<TRIPOS>ATOM
      1 C         138.9454  139.5373  166.3080 C.ar    1  UNL1        0.1345
      2 C         139.4558  140.8372  165.7604 C.ar    1  UNL1        0.0484
      3 C         140.0196  141.8721  166.6882 C.ar    1  UNL1        0.0449
      4 C         140.0731  141.6072  168.1637 C.ar    1  UNL1        0.0098
      5 C         139.5628  140.3074  168.7113 C.ar    1  UNL1        0.0972
      6 N         138.9990  139.2723  167.7834 N.ar    1  UNL1       -0.2293
      7 C         140.6370  142.6422  169.0916 C.3     1  UNL1        0.0251
      8 C         141.7641  143.1484  169.9420 C.3     1  UNL1        0.0048
      9 C         140.4865  143.9286  169.8482 C.3     1  UNL1        0.0048
     10 N         138.3816  138.5023  165.3801 N.pl3   1  UNL1       -0.2821
     11 H         137.7577  137.8220  165.7223 H       1  UNL1        0.1551
     12 C         139.5421  138.5070  161.0323 C.ar    1  UNL1        0.1683
     13 C         138.4002  139.3572  161.5047 C.ar    1  UNL1        0.1299
     14 N         138.0134  139.3556  162.9540 N.ar    1  UNL1       -0.2251
     15 C         138.7684  138.5039  163.9308 C.ar    1  UNL1        0.1527
     16 C         139.9103  137.6537  163.4585 C.ar    1  UNL1        0.1340
     17 N         140.2972  137.6552  162.0092 N.ar    1  UNL1       -0.2290
     18 N         140.3157  138.5101  158.1338 N.1     1  UNL1       -0.1892
     19 C         139.9289  138.5085  159.5831 C.1     1  UNL1        0.1214
     20 N         140.5300  143.1721  166.1407 N.pl3   1  UNL1       -0.3308
     21 H         140.8670  143.8656  166.7528 H       1  UNL1        0.1469
     22 C         140.5268  143.4153  164.6605 C.3     1  UNL1        0.1184
     23 C         141.8232  143.5889  163.9262 C.3     1  UNL1        0.1503
     24 C         142.1202  144.8808  163.2241 C.3     1  UNL1        0.1003
     25 N         143.4166  145.0544  162.4898 N.3     1  UNL1       -0.2933
     26 C         144.4160  143.9363  162.4576 C.3     1  UNL1        0.1011
     27 C         144.1189  142.6444  163.1597 C.3     1  UNL1        0.1592
     28 O         142.8225  142.4708  163.8941 O.3     1  UNL1       -0.3516
     29 H         143.8865  145.8574  162.9079 H       1  UNL1        0.1234
@<TRIPOS>BOND
     1    18    19    3
     2    19    12    1
     3    12    13   ar
     4    13    14   ar
     5    14    15   ar
     6    15    10    1
     7    10     1    1
     8     1     2   ar
     9     2     3   ar
    10     3    20    1
    11    20    22    1
    12    23    22    1
    13    23    24    1
    14    24    25    1
    15    25    26    1
    16    26    27    1
    17    27    28    1
    18     3     4   ar
    19     4     7    1
    20     7     8    1
    21     8     9    1
    22     4     5   ar
    23     5     6   ar
    24    15    16   ar
    25    16    17   ar
    26    17    12   ar
    27     6     1   ar
    28    28    23    1
    29     9     7    1
    30    10    11    1
    31    20    21    1
    32    25    29    1
@<TRIPOS>MOLECULE
*****
 29 32 0 0 0
SMALL
GASTEIGER

@<TRIPOS>ATOM
      1 C         143.1159  138.5445  165.6755 C.ar    1  UNL1        0.1345
      2 C         144.0420  139.2598  164.7369 C.ar    1  UNL1        0.0484
      3 C         143.8241  139.1711  163.2555 C.ar    1  UNL1        0.0449
      4 C         142.6802  138.3670  162.7126 C.ar    1  UNL1        0.0098
      5 C         141.7541  137.6517  163.6510 C.ar    1  UNL1        0.0972
      6 N         141.9719  137.7404  165.1325 N.ar    1  UNL1       -0.2293
      7 C         142.4623  138.2782  161.2311 C.3     1  UNL1        0.0251
      8 C         142.8945  137.7860  159.8817 C.3     1  UNL1        0.0048
      9 C         141.6528  138.6168  160.0145 C.3     1  UNL1        0.0048
     10 N         143.3338  138.6333  167.1569 N.pl3   1  UNL1       -0.2821
     11 H         144.0188  138.0729  167.5881 H       1  UNL1        0.1551
     12 C         140.8564  141.4610  169.6300 C.ar    1  UNL1        0.1683
     13 C         142.0851  140.8313  170.2162 C.ar    1  UNL1        0.1299
     14 N         142.9109  139.8887  169.3918 N.ar    1  UNL1       -0.2251
     15 C         142.5080  139.5758  167.9812 C.ar    1  UNL1        0.1527
     16 C         141.2793  140.2056  167.3951 C.ar    1  UNL1        0.1340
     17 N         140.4535  141.1481  168.2195 N.ar    1  UNL1       -0.2290
     18 N         139.2048  143.3462  171.2788 N.1     1  UNL1       -0.1892
     19 C         140.0306  142.4036  170.4544 C.1     1  UNL1        0.1214
     20 N         144.7502  139.8864  162.3170 N.pl3   1  UNL1       -0.3308
     21 H         145.1640  139.3999  161.5678 H       1  UNL1        0.1469
     22 C         145.0458  141.3429  162.5201 C.3     1  UNL1        0.1184
     23 C         144.0140  142.3736  162.1696 C.3     1  UNL1        0.1503
     24 C         144.2279  143.8087  162.5501 C.3     1  UNL1        0.1003
     25 N         143.1960  144.8393  162.1996 N.3     1  UNL1       -0.2933
     26 C         141.9502  144.4350  161.4684 C.3     1  UNL1        0.1011
     27 C         141.7363  142.9999  161.0879 C.3     1  UNL1        0.1592
     28 O         142.7682  141.9692  161.4385 O.3     1  UNL1       -0.3516
     29 H         143.6627  145.5385  161.6218 H       1  UNL1        0.1234
@<TRIPOS>BOND
     1    18    19    3
     2    19    12    1
     3    12    13   ar
     4    13    14   ar
     5    14    15   ar
     6    15    10    1
     7    10     1    1
     8     1     2   ar
     9     2     3   ar
    10     3    20    1
    11    20    22    1
    12    23    22    1
    13    23    24    1
    14    24    25    1
    15    25    26    1
    16    26    27    1
    17    27    28    1
    18     3     4   ar
    19     4     7    1
    20     7     8    1
    21     8     9    1
    22     4     5   ar
    23     5     6   ar
    24    15    16   ar
    25    16    17   ar
    26    17    12   ar
    27     6     1   ar
    28    28    23    1
    29     9     7    1
    30    10    11    1
    31    20    21    1
    32    25    29    1
@<TRIPOS>MOLECULE
*****
 29 32 0 0 0
SMALL
GASTEIGER

@<TRIPOS>ATOM
      1 C         138.3725  139.3282  161.2065 C.ar    1  UNL1        0.1345
      2 C         138.0433  140.5405  162.0264 C.ar    1  UNL1        0.0484
      3 C         138.0318  140.4527  163.5237 C.ar    1  UNL1        0.0449
      4 C         138.3494  139.1527  164.2013 C.ar    1  UNL1        0.0098
      5 C         138.6786  137.9405  163.3815 C.ar    1  UNL1        0.0972
      6 N         138.6901  138.0282  161.8841 N.ar    1  UNL1       -0.2293
      7 C         138.3379  139.0650  165.6987 C.3     1  UNL1        0.0251
      8 C         137.7784  138.4797  166.9614 C.3     1  UNL1        0.0048
      9 C         138.8773  139.4984  167.0296 C.3     1  UNL1        0.0048
     10 N         138.3840  139.4160  159.7091 N.pl3   1  UNL1       -0.2821
     11 H         137.6192  139.8135  159.2334 H       1  UNL1        0.1551
     12 C         141.9144  137.8622  157.3913 C.ar    1  UNL1        0.1683
     13 C         140.5239  137.6550  156.8684 C.ar    1  UNL1        0.1299
     14 N         139.3471  138.1729  157.6410 N.ar    1  UNL1       -0.2251
     15 C         139.5608  138.8981  158.9365 C.ar    1  UNL1        0.1527
     16 C         140.9513  139.1053  159.4594 C.ar    1  UNL1        0.1340
     17 N         142.1281  138.5874  158.6868 N.ar    1  UNL1       -0.2290
     18 N         144.2680  136.8264  155.8461 N.1     1  UNL1       -0.1892
     19 C         143.0912  137.3443  156.6187 C.1     1  UNL1        0.1214
     20 N         137.7026  141.6650  164.3436 N.pl3   1  UNL1       -0.3308
     21 H         136.7705  141.8444  164.6047 H       1  UNL1        0.1469
     22 C         138.7937  142.6039  164.7655 C.3     1  UNL1        0.1184
     23 C         139.2211  143.7154  163.8534 C.3     1  UNL1        0.1503
     24 C         138.2365  144.3225  162.8985 C.3     1  UNL1        0.1003
     25 N         138.6639  145.4339  161.9863 N.3     1  UNL1       -0.2933
     26 C         140.0759  145.9383  162.0292 C.3     1  UNL1        0.1011
     27 C         141.0605  145.3312  162.9841 C.3     1  UNL1        0.1592
     28 O         140.6331  144.2197  163.8963 O.3     1  UNL1       -0.3516
     29 H         138.0603  146.2306  162.1901 H       1  UNL1        0.1234
@<TRIPOS>BOND
     1    18    19    3
     2    19    12    1
     3    12    13   ar
     4    13    14   ar
     5    14    15   ar
     6    15    10    1
     7    10     1    1
     8     1     2   ar
     9     2     3   ar
    10     3    20    1
    11    20    22    1
    12    23    22    1
    13    23    24    1
    14    24    25    1
    15    25    26    1
    16    26    27    1
    17    27    28    1
    18     3     4   ar
    19     4     7    1
    20     7     8    1
    21     8     9    1
    22     4     5   ar
    23     5     6   ar
    24    15    16   ar
    25    16    17   ar
    26    17    12   ar
    27     6     1   ar
    28    28    23    1
    29     9     7    1
    30    10    11    1
    31    20    21    1
    32    25    29    1
@<TRIPOS>MOLECULE
*****
 29 32 0 0 0
SMALL
GASTEIGER

@<TRIPOS>ATOM
      1 C         140.2458  143.1567  164.5266 C.ar    1  UNL1        0.1345
      2 C         141.1213  142.1628  165.2308 C.ar    1  UNL1        0.0484
      3 C         140.5383  140.8781  165.7402 C.ar    1  UNL1        0.0449
      4 C         139.0797  140.5872  165.5455 C.ar    1  UNL1        0.0098
      5 C         138.2042  141.5809  164.8413 C.ar    1  UNL1        0.0972
      6 N         138.7873  142.8657  164.3319 N.ar    1  UNL1       -0.2293
      7 C         138.4967  139.3024  166.0549 C.3     1  UNL1        0.0251
      8 C         137.6831  138.5582  167.0719 C.3     1  UNL1        0.0048
      9 C         138.3004  137.8214  165.9204 C.3     1  UNL1        0.0048
     10 N         140.8289  144.4414  164.0172 N.pl3   1  UNL1       -0.2821
     11 H         141.2859  145.0545  164.6372 H       1  UNL1        0.1551
     12 C         140.4895  145.4928  159.6550 C.ar    1  UNL1        0.1683
     13 C         141.5232  144.5059  160.1103 C.ar    1  UNL1        0.1299
     14 N         141.6364  144.1554  161.5644 N.ar    1  UNL1       -0.2251
     15 C         140.7158  144.7918  162.5631 C.ar    1  UNL1        0.1527
     16 C         139.6820  145.7787  162.1078 C.ar    1  UNL1        0.1340
     17 N         139.5689  146.1292  160.6537 N.ar    1  UNL1       -0.2290
     18 N         140.2632  146.1937  156.7468 N.1     1  UNL1       -0.1892
     19 C         140.3763  145.8433  158.2009 C.1     1  UNL1        0.1214
     20 N         141.4138  139.8843  166.4444 N.pl3   1  UNL1       -0.3308
     21 H         141.6146  139.0183  166.0213 H       1  UNL1        0.1469
     22 C         141.9833  140.2099  167.7934 C.3     1  UNL1        0.1184
     23 C         141.2315  141.1112  168.7273 C.3     1  UNL1        0.1503
     24 C         140.0279  140.5965  169.4598 C.3     1  UNL1        0.1003
     25 N         139.2761  141.4978  170.3937 N.3     1  UNL1       -0.2933
     26 C         139.7277  142.9140  170.5951 C.3     1  UNL1        0.1011
     27 C         140.9313  143.4288  169.8626 C.3     1  UNL1        0.1592
     28 O         141.6831  142.5273  168.9286 O.3     1  UNL1       -0.3516
     29 H         139.2913  141.0508  171.3103 H       1  UNL1        0.1234
@<TRIPOS>BOND
     1    18    19    3
     2    19    12    1
     3    12    13   ar
     4    13    14   ar
     5    14    15   ar
     6    15    10    1
     7    10     1    1
     8     1     2   ar
     9     2     3   ar
    10     3    20    1
    11    20    22    1
    12    23    22    1
    13    23    24    1
    14    24    25    1
    15    25    26    1
    16    26    27    1
    17    27    28    1
    18     3     4   ar
    19     4     7    1
    20     7     8    1
    21     8     9    1
    22     4     5   ar
    23     5     6   ar
    24    15    16   ar
    25    16    17   ar
    26    17    12   ar
    27     6     1   ar
    28    28    23    1
    29     9     7    1
    30    10    11    1
    31    20    21    1
    32    25    29    1
@<TRIPOS>MOLECULE
*****
 29 32 0 0 0
SMALL
GASTEIGER

@<TRIPOS>ATOM
      1 C         142.6661  139.5363  166.9842 C.ar    1  UNL1        0.1345
      2 C         141.7134  140.5177  166.3682 C.ar    1  UNL1        0.0484
      3 C         141.0330  141.5424  167.2266 C.ar    1  UNL1        0.0449
      4 C         141.3053  141.5858  168.7011 C.ar    1  UNL1        0.0098
      5 C         142.2579  140.6046  169.3171 C.ar    1  UNL1        0.0972
      6 N         142.9384  139.5798  168.4586 N.ar    1  UNL1       -0.2293
      7 C         140.6248  142.6106  169.5595 C.3     1  UNL1        0.0251
      8 C         140.3852  144.0450  169.9272 C.3     1  UNL1        0.0048
      9 C         139.6859  142.9512  170.6786 C.3     1  UNL1        0.0048
     10 N         143.3465  138.5116  166.1257 N.pl3   1  UNL1       -0.2821
     11 H         143.7155  137.6948  166.5331 H       1  UNL1        0.1551
     12 C         143.7013  139.1709  161.6884 C.ar    1  UNL1        0.1683
     13 C         142.6226  138.2807  162.2305 C.ar    1  UNL1        0.1299
     14 N         142.5043  138.0609  163.7096 N.ar    1  UNL1       -0.2251
     15 C         143.4648  138.7314  164.6466 C.ar    1  UNL1        0.1527
     16 C         144.5435  139.6216  164.1045 C.ar    1  UNL1        0.1340
     17 N         144.6617  139.8413  162.6254 N.ar    1  UNL1       -0.2290
     18 N         143.9378  139.6104  158.7302 N.1     1  UNL1       -0.1892
     19 C         143.8196  139.3906  160.2093 C.1     1  UNL1        0.1214
     20 N         140.0803  142.5238  166.6106 N.pl3   1  UNL1       -0.3308
     21 H         139.4127  142.9804  167.1719 H       1  UNL1        0.1469
     22 C         140.1448  142.8093  165.1395 C.3     1  UNL1        0.1184
     23 C         139.2865  142.0318  164.1862 C.3     1  UNL1        0.1503
     24 C         137.8015  142.2425  164.1714 C.3     1  UNL1        0.1003
     25 N         136.9432  141.4650  163.2181 N.3     1  UNL1       -0.2933
     26 C         137.5699  140.4768  162.2796 C.3     1  UNL1        0.1011
     27 C         139.0550  140.2661  162.2945 C.3     1  UNL1        0.1592
     28 O         139.9133  141.0436  163.2478 O.3     1  UNL1       -0.3516
     29 H         136.4509  142.1473  162.6415 H       1  UNL1        0.1234
@<TRIPOS>BOND
     1    18    19    3
     2    19    12    1
     3    12    13   ar
     4    13    14   ar
     5    14    15   ar
     6    15    10    1
     7    10     1    1
     8     1     2   ar
     9     2     3   ar
    10     3    20    1
    11    20    22    1
    12    23    22    1
    13    23    24    1
    14    24    25    1
    15    25    26    1
    16    26    27    1
    17    27    28    1
    18     3     4   ar
    19     4     7    1
    20     7     8    1
    21     8     9    1
    22     4     5   ar
    23     5     6   ar
    24    15    16   ar
    25    16    17   ar
    26    17    12   ar
    27     6     1   ar
    28    28    23    1
    29     9     7    1
    30    10    11    1
    31    20    21    1
    32    25    29    1
@<TRIPOS>MOLECULE
*****
 29 32 0 0 0
SMALL
GASTEIGER

@<TRIPOS>ATOM
      1 C         139.3992  139.5651  166.6468 C.ar    1  UNL1        0.1345
      2 C         140.5199  140.3339  166.0120 C.ar    1  UNL1        0.0484
      3 C         141.4508  141.1441  166.8646 C.ar    1  UNL1        0.0449
      4 C         141.2610  141.1856  168.3520 C.ar    1  UNL1        0.0098
      5 C         140.1403  140.4168  168.9868 C.ar    1  UNL1        0.0972
      6 N         139.2094  139.6066  168.1342 N.ar    1  UNL1       -0.2293
      7 C         142.1920  141.9959  169.2046 C.3     1  UNL1        0.0251
      8 C         142.4193  143.1086  170.1844 C.3     1  UNL1        0.0048
      9 C         143.5772  142.2865  169.7015 C.3     1  UNL1        0.0048
     10 N         138.4683  138.7549  165.7942 N.pl3   1  UNL1       -0.2821
     11 H         137.9314  138.0353  166.1982 H       1  UNL1        0.1551
     12 C         138.1295  139.6133  161.3899 C.ar    1  UNL1        0.1683
     13 C         137.7457  140.6630  162.3903 C.ar    1  UNL1        0.1299
     14 N         137.8586  140.3769  163.8584 N.ar    1  UNL1       -0.2251
     15 C         138.3553  139.0410  164.3261 C.ar    1  UNL1        0.1527
     16 C         138.7391  137.9914  163.3257 C.ar    1  UNL1        0.1340
     17 N         138.6262  138.2775  161.8576 N.ar    1  UNL1       -0.2290
     18 N         137.9036  140.1856  158.4536 N.1     1  UNL1       -0.1892
     19 C         138.0165  139.8994  159.9218 C.1     1  UNL1        0.1214
     20 N         142.5716  141.9130  166.2298 N.pl3   1  UNL1       -0.3308
     21 H         142.6278  142.8888  166.3477 H       1  UNL1        0.1469
     22 C         143.6067  141.1950  165.4155 C.3     1  UNL1        0.1184
     23 C         143.9834  141.7106  164.0583 C.3     1  UNL1        0.1503
     24 C         145.3991  141.5914  163.5771 C.3     1  UNL1        0.1003
     25 N         145.7758  142.1070  162.2198 N.3     1  UNL1       -0.2933
     26 C         144.7368  142.7418  161.3437 C.3     1  UNL1        0.1011
     27 C         143.3211  142.8610  161.8249 C.3     1  UNL1        0.1592
     28 O         142.9444  142.3453  163.1822 O.3     1  UNL1       -0.3516
     29 H         146.1565  141.3164  161.6997 H       1  UNL1        0.1234
@<TRIPOS>BOND
     1    18    19    3
     2    19    12    1
     3    12    13   ar
     4    13    14   ar
     5    14    15   ar
     6    15    10    1
     7    10     1    1
     8     1     2   ar
     9     2     3   ar
    10     3    20    1
    11    20    22    1
    12    23    22    1
    13    23    24    1
    14    24    25    1
    15    25    26    1
    16    26    27    1
    17    27    28    1
    18     3     4   ar
    19     4     7    1
    20     7     8    1
    21     8     9    1
    22     4     5   ar
    23     5     6   ar
    24    15    16   ar
    25    16    17   ar
    26    17    12   ar
    27     6     1   ar
    28    28    23    1
    29     9     7    1
    30    10    11    1
    31    20    21    1
    32    25    29    1
