@<TRIPOS>MOLECULE
*****
 34 38 0 0 0
SMALL
GASTEIGER

@<TRIPOS>ATOM
      1 C         142.2782  138.6956  159.9714 C.ar    1  UNL1        0.1074
      2 C         141.2434  139.2418  159.0330 C.ar    1  UNL1        0.0588
      3 S         141.5033  138.6680  157.6717 S.2     1  UNL1       -0.0508
      4 C         142.6986  137.7672  157.7688 C.ar    1  UNL1        0.1646
      5 N         143.1776  137.7842  159.1902 N.ar    1  UNL1       -0.2224
      6 C         143.8431  139.6641  163.4876 C.ar    1  UNL1        0.2416
      7 N         143.7280  139.3535  162.0246 N.ar    1  UNL1       -0.2089
      8 C         142.3934  139.0061  161.4344 C.ar    1  UNL1        0.1026
      9 C         141.1740  138.9694  162.3072 C.ar    1  UNL1        0.0224
     10 C         141.2892  139.2800  163.7702 C.ar    1  UNL1        0.0239
     11 C         142.6238  139.6274  164.3604 C.ar    1  UNL1        0.1189
     12 N         142.7390  139.9379  165.8233 N.ar    1  UNL1       -0.2826
     13 C         142.9074  138.9359  166.9269 C.ar    1  UNL1        0.1826
     14 N         142.9785  139.6837  168.2251 N.ar    1  UNL1       -0.2280
     15 C         142.8541  141.1480  167.9241 C.ar    1  UNL1        0.0786
     16 C         142.8741  142.2599  168.9307 C.3     1  UNL1        0.0538
     17 C         142.7060  141.3050  166.4396 C.ar    1  UNL1        0.0963
     18 C         145.7297  141.3973  163.9202 C.3     1  UNL1        0.2543
     19 O         145.1777  140.0114  164.0777 O.3     1  UNL1       -0.4551
     20 N         143.3081  136.9863  156.6423 N.pl3   1  UNL1       -0.2786
     21 H         144.1307  137.3090  156.2082 H       1  UNL1        0.1555
     22 C         142.6643  135.7139  156.1772 C.ar    1  UNL1        0.1276
     23 C         143.0585  134.3256  156.5863 C.ar    1  UNL1        0.0244
     24 C         142.1510  133.3600  155.8834 C.ar    1  UNL1        0.0773
     25 N         141.1960  134.1515  155.0399 N.ar    1  UNL1       -0.1728
     26 N         141.5132  135.6063  155.2215 N.ar    1  UNL1       -0.2357
     27 C         142.3116  131.8848  156.1022 C.3     1  UNL1        0.0474
     28 C         143.3796  131.3752  157.0239 C.3     1  UNL1        0.0067
     29 C         144.2871  132.3408  157.7268 C.3     1  UNL1        0.0052
     30 C         144.1265  133.8160  157.5080 C.3     1  UNL1        0.0305
     31 C         140.8038  136.7522  154.5630 C.3     1  UNL1        0.1604
     32 C         139.3847  137.0678  154.9325 C.3     1  UNL1        0.1635
     33 O         138.8033  136.5279  156.2055 O.3     1  UNL1       -0.3799
     34 H         138.7455  135.5613  156.1501 H       1  UNL1        0.2105
@<TRIPOS>BOND
     1    18    19    1
     2    19     6    1
     3     6     7   ar
     4     7     8   ar
     5     8     1    1
     6     1     2   ar
     7     2     3   ar
     8     3     4   ar
     9     4    20    1
    10    20    22    1
    11    22    23   ar
    12    23    24   ar
    13    24    25   ar
    14    25    26   ar
    15    26    31    1
    16    31    32    1
    17    32    33    1
    18    24    27    1
    19    27    28    1
    20    28    29    1
    21    29    30    1
    22     4     5   ar
    23     8     9   ar
    24     9    10   ar
    25    10    11   ar
    26    11    12    1
    27    12    13   ar
    28    13    14   ar
    29    14    15   ar
    30    15    16    1
    31    15    17   ar
    32    11     6   ar
    33    17    12   ar
    34     5     1   ar
    35    26    22   ar
    36    30    23    1
    37    20    21    1
    38    33    34    1
@<TRIPOS>MOLECULE
*****
 34 38 0 0 0
SMALL
GASTEIGER

@<TRIPOS>ATOM
      1 C         143.4905  141.9284  162.4943 C.ar    1  UNL1        0.1074
      2 C         144.9028  141.4281  162.5659 C.ar    1  UNL1        0.0588
      3 S         145.0915  140.7618  163.8965 S.2     1  UNL1       -0.0508
      4 C         143.7959  140.8504  164.6471 C.ar    1  UNL1        0.1646
      5 N         142.8064  141.5714  163.7805 N.ar    1  UNL1       -0.2224
      6 C         141.0313  144.2327  160.3983 C.ar    1  UNL1        0.2416
      7 N         141.6507  143.5034  161.5535 N.ar    1  UNL1       -0.2089
      8 C         142.8711  142.6578  161.3392 C.ar    1  UNL1        0.1026
      9 C         143.4719  142.5416  159.9696 C.ar    1  UNL1        0.0224
     10 C         142.8524  143.2710  158.8145 C.ar    1  UNL1        0.0239
     11 C         141.6321  144.1165  159.0289 C.ar    1  UNL1        0.1189
     12 N         141.0127  144.8459  157.8738 N.ar    1  UNL1       -0.2826
     13 C         141.5679  146.0668  157.2019 C.ar    1  UNL1        0.1826
     14 N         140.6277  146.4578  156.1006 N.ar    1  UNL1       -0.2280
     15 C         139.4912  145.4787  156.0917 C.ar    1  UNL1        0.0786
     16 C         138.3222  145.4932  155.1520 C.3     1  UNL1        0.0538
     17 C         139.7293  144.4824  157.1876 C.ar    1  UNL1        0.0963
     18 C         139.8059  146.1303  161.6819 C.3     1  UNL1        0.2543
     19 O         139.8111  145.0783  160.6127 O.3     1  UNL1       -0.4551
     20 N         143.5355  140.3123  166.0230 N.pl3   1  UNL1       -0.2786
     21 H         144.2739  139.9297  166.5498 H       1  UNL1        0.1555
     22 C         142.1500  140.3573  166.5960 C.ar    1  UNL1        0.1276
     23 C         140.9919  139.5041  166.1708 C.ar    1  UNL1        0.0244
     24 C         139.8055  139.8829  167.0068 C.ar    1  UNL1        0.0773
     25 N         140.2304  140.9702  167.9488 N.ar    1  UNL1       -0.1728
     26 N         141.6794  141.2634  167.6949 N.ar    1  UNL1       -0.2357
     27 C         138.4916  139.1888  166.8024 C.3     1  UNL1        0.0474
     28 C         138.3641  138.1160  165.7619 C.3     1  UNL1        0.0067
     29 C         139.5505  137.7372  164.9258 C.3     1  UNL1        0.0052
     30 C         140.8644  138.4313  165.1303 C.3     1  UNL1        0.0305
     31 C         142.5116  142.2836  168.4137 C.3     1  UNL1        0.1604
     32 C         143.4411  141.8554  169.5103 C.3     1  UNL1        0.1635
     33 O         144.3807  142.8485  170.1275 O.3     1  UNL1       -0.3799
     34 H         145.0305  143.1332  169.4660 H       1  UNL1        0.2105
@<TRIPOS>BOND
     1    18    19    1
     2    19     6    1
     3     6     7   ar
     4     7     8   ar
     5     8     1    1
     6     1     2   ar
     7     2     3   ar
     8     3     4   ar
     9     4    20    1
    10    20    22    1
    11    22    23   ar
    12    23    24   ar
    13    24    25   ar
    14    25    26   ar
    15    26    31    1
    16    31    32    1
    17    32    33    1
    18    24    27    1
    19    27    28    1
    20    28    29    1
    21    29    30    1
    22     4     5   ar
    23     8     9   ar
    24     9    10   ar
    25    10    11   ar
    26    11    12    1
    27    12    13   ar
    28    13    14   ar
    29    14    15   ar
    30    15    16    1
    31    15    17   ar
    32    11     6   ar
    33    17    12   ar
    34     5     1   ar
    35    26    22   ar
    36    30    23    1
    37    20    21    1
    38    33    34    1
@<TRIPOS>MOLECULE
*****
 34 38 0 0 0
SMALL
GASTEIGER

@<TRIPOS>ATOM
      1 C         141.8445  138.5396  160.1075 C.ar    1  UNL1        0.1074
      2 C         141.0472  139.2234  159.0367 C.ar    1  UNL1        0.0588
      3 S         141.4946  138.6847  157.7102 S.2     1  UNL1       -0.0508
      4 C         142.5685  137.6680  157.9612 C.ar    1  UNL1        0.1646
      5 N         142.7847  137.5783  159.4428 N.ar    1  UNL1       -0.2224
      6 C         141.6712  140.4077  163.6047 C.ar    1  UNL1        0.2416
      7 N         141.7928  140.1717  162.1284 N.ar    1  UNL1       -0.2089
      8 C         141.7230  138.7757  161.5838 C.ar    1  UNL1        0.1026
      9 C         141.5316  137.6159  162.5155 C.ar    1  UNL1        0.0224
     10 C         141.4101  137.8520  163.9919 C.ar    1  UNL1        0.0239
     11 C         141.4799  139.2479  164.5364 C.ar    1  UNL1        0.1189
     12 N         141.3584  139.4840  166.0127 N.ar    1  UNL1       -0.2826
     13 C         142.4675  139.3774  167.0170 C.ar    1  UNL1        0.1826
     14 N         141.9011  139.6956  168.3688 N.ar    1  UNL1       -0.2280
     15 C         140.4416  139.9990  168.2002 C.ar    1  UNL1        0.0786
     16 C         139.4856  140.3683  169.2955 C.3     1  UNL1        0.0538
     17 C         140.1063  139.8682  166.7440 C.ar    1  UNL1        0.0963
     18 C         140.5099  142.6601  164.1776 C.3     1  UNL1        0.2543
     19 O         141.7411  141.8036  164.1492 O.3     1  UNL1       -0.4551
     20 N         143.2981  136.8793  156.9143 N.pl3   1  UNL1       -0.2786
     21 H         144.1773  137.1835  156.5926 H       1  UNL1        0.1555
     22 C         142.6879  135.6271  156.3578 C.ar    1  UNL1        0.1276
     23 C         143.0847  134.2230  156.7057 C.ar    1  UNL1        0.0244
     24 C         142.2159  133.2872  155.9186 C.ar    1  UNL1        0.0773
     25 N         141.2821  134.1131  155.0843 N.ar    1  UNL1       -0.1728
     26 N         141.5738  135.5592  155.3557 N.ar    1  UNL1       -0.2357
     27 C         142.3873  131.8041  156.0632 C.3     1  UNL1        0.0474
     28 C         143.4275  131.2568  156.9950 C.3     1  UNL1        0.0067
     29 C         144.2963  132.1925  157.7821 C.3     1  UNL1        0.0052
     30 C         144.1250  133.6756  157.6374 C.3     1  UNL1        0.0305
     31 C         140.8742  136.7315  154.7342 C.3     1  UNL1        0.1604
     32 C         139.4043  136.9315  154.9558 C.3     1  UNL1        0.1635
     33 O         138.7895  136.5744  156.2766 O.3     1  UNL1       -0.3799
     34 H         138.8448  135.6152  156.4102 H       1  UNL1        0.2105
@<TRIPOS>BOND
     1    18    19    1
     2    19     6    1
     3     6     7   ar
     4     7     8   ar
     5     8     1    1
     6     1     2   ar
     7     2     3   ar
     8     3     4   ar
     9     4    20    1
    10    20    22    1
    11    22    23   ar
    12    23    24   ar
    13    24    25   ar
    14    25    26   ar
    15    26    31    1
    16    31    32    1
    17    32    33    1
    18    24    27    1
    19    27    28    1
    20    28    29    1
    21    29    30    1
    22     4     5   ar
    23     8     9   ar
    24     9    10   ar
    25    10    11   ar
    26    11    12    1
    27    12    13   ar
    28    13    14   ar
    29    14    15   ar
    30    15    16    1
    31    15    17   ar
    32    11     6   ar
    33    17    12   ar
    34     5     1   ar
    35    26    22   ar
    36    30    23    1
    37    20    21    1
    38    33    34    1
@<TRIPOS>MOLECULE
*****
 34 38 0 0 0
SMALL
GASTEIGER

@<TRIPOS>ATOM
      1 C         142.0122  138.7337  160.9525 C.ar    1  UNL1        0.1074
      2 C         140.7606  138.8916  160.1410 C.ar    1  UNL1        0.0588
      3 S         141.0475  138.4127  158.7487 S.2     1  UNL1       -0.0508
      4 C         142.4763  137.9590  158.6998 C.ar    1  UNL1        0.1646
      5 N         143.0726  138.1574  160.0618 N.ar    1  UNL1       -0.2224
      6 C         141.1710  139.9813  164.6248 C.ar    1  UNL1        0.2416
      7 N         141.0083  139.6253  163.1768 N.ar    1  UNL1       -0.2089
      8 C         142.1748  139.0897  162.4005 C.ar    1  UNL1        0.1026
      9 C         143.5039  138.9102  163.0723 C.ar    1  UNL1        0.0224
     10 C         143.6665  139.2663  164.5204 C.ar    1  UNL1        0.0239
     11 C         142.5001  139.8018  165.2966 C.ar    1  UNL1        0.1189
     12 N         142.6627  140.1579  166.7446 N.ar    1  UNL1       -0.2826
     13 C         142.7207  139.1902  167.8894 C.ar    1  UNL1        0.1826
     14 N         142.8898  139.9783  169.1543 N.ar    1  UNL1       -0.2280
     15 C         142.9362  141.4331  168.7915 C.ar    1  UNL1        0.0786
     16 C         143.0951  142.5761  169.7497 C.3     1  UNL1        0.0538
     17 C         142.7959  141.5440  167.3021 C.ar    1  UNL1        0.0963
     18 C         138.7891  139.6636  165.6126 C.3     1  UNL1        0.2543
     19 O         140.0046  140.5169  165.4011 O.3     1  UNL1       -0.4551
     20 N         143.1847  137.4042  157.4995 N.pl3   1  UNL1       -0.2786
     21 H         144.0564  137.7728  157.2284 H       1  UNL1        0.1555
     22 C         142.5648  136.2879  156.7123 C.ar    1  UNL1        0.1276
     23 C         142.9105  134.8325  156.8240 C.ar    1  UNL1        0.0244
     24 C         142.0498  134.0761  155.8560 C.ar    1  UNL1        0.0773
     25 N         141.1722  135.0640  155.1461 N.ar    1  UNL1       -0.1728
     26 N         141.4905  136.4309  155.6753 N.ar    1  UNL1       -0.2357
     27 C         142.1763  132.5855  155.7461 C.3     1  UNL1        0.0474
     28 C         143.1635  131.8514  156.6042 C.3     1  UNL1        0.0067
     29 C         144.0242  132.6078  157.5722 C.3     1  UNL1        0.0052
     30 C         143.8977  134.0984  157.6821 C.3     1  UNL1        0.0305
     31 C         140.8475  137.7154  155.2433 C.3     1  UNL1        0.1604
     32 C         139.3856  137.9425  155.4906 C.3     1  UNL1        0.1635
     33 O         138.5129  136.8033  155.9274 O.3     1  UNL1       -0.3799
     34 H         138.4571  136.1472  155.2152 H       1  UNL1        0.2105
@<TRIPOS>BOND
     1    18    19    1
     2    19     6    1
     3     6     7   ar
     4     7     8   ar
     5     8     1    1
     6     1     2   ar
     7     2     3   ar
     8     3     4   ar
     9     4    20    1
    10    20    22    1
    11    22    23   ar
    12    23    24   ar
    13    24    25   ar
    14    25    26   ar
    15    26    31    1
    16    31    32    1
    17    32    33    1
    18    24    27    1
    19    27    28    1
    20    28    29    1
    21    29    30    1
    22     4     5   ar
    23     8     9   ar
    24     9    10   ar
    25    10    11   ar
    26    11    12    1
    27    12    13   ar
    28    13    14   ar
    29    14    15   ar
    30    15    16    1
    31    15    17   ar
    32    11     6   ar
    33    17    12   ar
    34     5     1   ar
    35    26    22   ar
    36    30    23    1
    37    20    21    1
    38    33    34    1
@<TRIPOS>MOLECULE
*****
 34 38 0 0 0
SMALL
GASTEIGER

@<TRIPOS>ATOM
      1 C         142.2869  141.6087  158.9811 C.ar    1  UNL1        0.1074
      2 C         141.8059  142.9028  158.3947 C.ar    1  UNL1        0.0588
      3 S         142.0990  143.9953  159.3799 S.2     1  UNL1       -0.0508
      4 C         142.7611  143.3764  160.5751 C.ar    1  UNL1        0.1646
      5 N         142.8772  141.9014  160.3286 N.ar    1  UNL1       -0.2224
      6 C         143.2235  138.4113  156.8248 C.ar    1  UNL1        0.2416
      7 N         143.3166  139.7612  157.4723 N.ar    1  UNL1       -0.2089
      8 C         142.1939  140.2589  158.3336 C.ar    1  UNL1        0.1026
      9 C         140.9781  139.4067  158.5474 C.ar    1  UNL1        0.0224
     10 C         140.8851  138.0568  157.8999 C.ar    1  UNL1        0.0239
     11 C         142.0078  137.5591  157.0386 C.ar    1  UNL1        0.1189
     12 N         141.9148  136.2093  156.3911 N.ar    1  UNL1       -0.2826
     13 C         141.0008  135.8339  155.2624 C.ar    1  UNL1        0.1826
     14 N         141.2405  134.3905  154.9323 N.ar    1  UNL1       -0.2280
     15 C         142.3027  133.8737  155.8570 C.ar    1  UNL1        0.0786
     16 C         142.8517  132.4779  155.8766 C.3     1  UNL1        0.0538
     17 C         142.7194  134.9979  156.7586 C.ar    1  UNL1        0.0963
     18 C         144.9122  138.7922  154.8874 C.3     1  UNL1        0.2543
     19 O         144.3462  137.9137  155.9635 O.3     1  UNL1       -0.4551
     20 N         143.2255  144.1047  161.8015 N.pl3   1  UNL1       -0.2786
     21 H         143.9117  144.8067  161.7269 H       1  UNL1        0.1555
     22 C         142.6446  143.7632  163.1416 C.ar    1  UNL1        0.1276
     23 C         141.2320  144.0135  163.5798 C.ar    1  UNL1        0.0244
     24 C         141.0885  143.5165  164.9878 C.ar    1  UNL1        0.0773
     25 N         142.4124  142.9591  165.4197 N.ar    1  UNL1       -0.1728
     26 N         143.3741  143.1116  164.2787 N.ar    1  UNL1       -0.2357
     27 C         139.7709  143.6357  165.6946 C.3     1  UNL1        0.0474
     28 C         138.5968  144.2519  164.9935 C.3     1  UNL1        0.0067
     29 C         138.7402  144.7489  163.5855 C.3     1  UNL1        0.0052
     30 C         140.0578  144.6297  162.8787 C.3     1  UNL1        0.0305
     31 C         144.8128  142.6870  164.2754 C.3     1  UNL1        0.1604
     32 C         145.2997  141.6950  163.2611 C.3     1  UNL1        0.1635
     33 O         145.6686  142.1530  161.8812 O.3     1  UNL1       -0.3799
     34 H         144.8759  142.4759  161.4249 H       1  UNL1        0.2105
@<TRIPOS>BOND
     1    18    19    1
     2    19     6    1
     3     6     7   ar
     4     7     8   ar
     5     8     1    1
     6     1     2   ar
     7     2     3   ar
     8     3     4   ar
     9     4    20    1
    10    20    22    1
    11    22    23   ar
    12    23    24   ar
    13    24    25   ar
    14    25    26   ar
    15    26    31    1
    16    31    32    1
    17    32    33    1
    18    24    27    1
    19    27    28    1
    20    28    29    1
    21    29    30    1
    22     4     5   ar
    23     8     9   ar
    24     9    10   ar
    25    10    11   ar
    26    11    12    1
    27    12    13   ar
    28    13    14   ar
    29    14    15   ar
    30    15    16    1
    31    15    17   ar
    32    11     6   ar
    33    17    12   ar
    34     5     1   ar
    35    26    22   ar
    36    30    23    1
    37    20    21    1
    38    33    34    1
@<TRIPOS>MOLECULE
*****
 34 38 0 0 0
SMALL
GASTEIGER

@<TRIPOS>ATOM
      1 C         143.1160  139.9644  160.7233 C.ar    1  UNL1        0.1074
      2 C         143.6200  138.7795  161.4928 C.ar    1  UNL1        0.0588
      3 S         142.6757  138.5306  162.6314 S.2     1  UNL1       -0.0508
      4 C         141.5882  139.5616  162.5656 C.ar    1  UNL1        0.1646
      5 N         141.8604  140.4477  161.3863 N.ar    1  UNL1       -0.2224
      6 C         144.7507  140.2828  157.1210 C.ar    1  UNL1        0.2416
      7 N         144.1111  139.6859  158.3395 N.ar    1  UNL1       -0.2089
      8 C         143.7555  140.5611  159.5048 C.ar    1  UNL1        0.1026
      9 C         144.0395  142.0330  159.4514 C.ar    1  UNL1        0.0224
     10 C         144.6791  142.6298  158.2328 C.ar    1  UNL1        0.0239
     11 C         145.0346  141.7546  157.0676 C.ar    1  UNL1        0.1189
     12 N         145.6741  142.3513  155.8490 N.ar    1  UNL1       -0.2826
     13 C         144.9524  142.9480  154.6771 C.ar    1  UNL1        0.1826
     14 N         145.9798  143.4216  153.6922 N.ar    1  UNL1       -0.2280
     15 C         147.3366  143.1177  154.2554 C.ar    1  UNL1        0.0786
     16 C         148.6513  143.4219  153.6006 C.3     1  UNL1        0.0538
     17 C         147.1475  142.4563  155.5884 C.ar    1  UNL1        0.0963
     18 C         144.0558  139.0288  154.9542 C.3     1  UNL1        0.2543
     19 O         145.1062  139.4076  155.9558 O.3     1  UNL1       -0.4551
     20 N         140.4315  139.6849  163.5128 N.pl3   1  UNL1       -0.2786
     21 H         140.3604  139.0777  164.2845 H       1  UNL1        0.1555
     22 C         139.3833  140.7332  163.2841 C.ar    1  UNL1        0.1276
     23 C         139.2387  142.0165  164.0471 C.ar    1  UNL1        0.0244
     24 C         138.0617  142.7587  163.4869 C.ar    1  UNL1        0.0773
     25 N         137.4790  141.9341  162.3777 N.ar    1  UNL1       -0.1728
     26 N         138.2958  140.6822  162.2523 N.ar    1  UNL1       -0.2357
     27 C         137.6727  144.0895  164.0591 C.3     1  UNL1        0.0474
     28 C         138.4607  144.6782  165.1916 C.3     1  UNL1        0.0067
     29 C         139.6377  143.9360  165.7518 C.3     1  UNL1        0.0052
     30 C         140.0267  142.6051  165.1796 C.3     1  UNL1        0.0305
     31 C         138.0654  139.5740  161.2681 C.3     1  UNL1        0.1604
     32 C         137.7048  138.2017  161.7546 C.3     1  UNL1        0.1635
     33 O         138.7099  137.3867  162.5132 O.3     1  UNL1       -0.3799
     34 H         139.4512  137.1622  161.9291 H       1  UNL1        0.2105
@<TRIPOS>BOND
     1    18    19    1
     2    19     6    1
     3     6     7   ar
     4     7     8   ar
     5     8     1    1
     6     1     2   ar
     7     2     3   ar
     8     3     4   ar
     9     4    20    1
    10    20    22    1
    11    22    23   ar
    12    23    24   ar
    13    24    25   ar
    14    25    26   ar
    15    26    31    1
    16    31    32    1
    17    32    33    1
    18    24    27    1
    19    27    28    1
    20    28    29    1
    21    29    30    1
    22     4     5   ar
    23     8     9   ar
    24     9    10   ar
    25    10    11   ar
    26    11    12    1
    27    12    13   ar
    28    13    14   ar
    29    14    15   ar
    30    15    16    1
    31    15    17   ar
    32    11     6   ar
    33    17    12   ar
    34     5     1   ar
    35    26    22   ar
    36    30    23    1
    37    20    21    1
    38    33    34    1
@<TRIPOS>MOLECULE
*****
 34 38 0 0 0
SMALL
GASTEIGER

@<TRIPOS>ATOM
      1 C         143.3578  142.1284  162.5400 C.ar    1  UNL1        0.1074
      2 C         144.8179  142.0027  162.8594 C.ar    1  UNL1        0.0588
      3 S         144.9480  141.2248  164.1353 S.2     1  UNL1       -0.0508
      4 C         143.5682  140.8697  164.6044 C.ar    1  UNL1        0.1646
      5 N         142.5854  141.4282  163.6185 N.ar    1  UNL1       -0.2224
      6 C         141.0181  144.4565  160.3363 C.ar    1  UNL1        0.2416
      7 N         141.6031  143.7539  161.5255 N.ar    1  UNL1       -0.2089
      8 C         142.7727  142.8309  161.3509 C.ar    1  UNL1        0.1026
      9 C         143.3570  142.6106  159.9871 C.ar    1  UNL1        0.0224
     10 C         142.7719  143.3132  158.7979 C.ar    1  UNL1        0.0239
     11 C         141.6024  144.2361  158.9726 C.ar    1  UNL1        0.1189
     12 N         141.0173  144.9387  157.7835 N.ar    1  UNL1       -0.2826
     13 C         141.6511  146.0683  157.0268 C.ar    1  UNL1        0.1826
     14 N         140.7213  146.4628  155.9179 N.ar    1  UNL1       -0.2280
     15 C         139.5127  145.5770  155.9892 C.ar    1  UNL1        0.0786
     16 C         138.3291  145.6248  155.0690 C.3     1  UNL1        0.0538
     17 C         139.6958  144.6350  157.1422 C.ar    1  UNL1        0.0963
     18 C         139.7563  146.2510  161.7283 C.3     1  UNL1        0.2543
     19 O         139.8486  145.3794  160.5110 O.3     1  UNL1       -0.4551
     20 N         143.2305  140.0926  165.8423 N.pl3   1  UNL1       -0.2786
     21 H         143.8114  139.3527  166.1328 H       1  UNL1        0.1555
     22 C         142.0078  140.4428  166.6374 C.ar    1  UNL1        0.1276
     23 C         141.9688  141.3172  167.8556 C.ar    1  UNL1        0.0244
     24 C         140.5463  141.3949  168.3251 C.ar    1  UNL1        0.0773
     25 N         139.7062  140.5685  167.3971 N.ar    1  UNL1       -0.1728
     26 N         140.6094  139.9800  166.3541 N.ar    1  UNL1       -0.2357
     27 C         140.1998  142.2081  169.5369 C.3     1  UNL1        0.0474
     28 C         141.2759  142.9437  170.2792 C.3     1  UNL1        0.0067
     29 C         142.6984  142.8660  169.8097 C.3     1  UNL1        0.0052
     30 C         143.0449  142.0527  168.5979 C.3     1  UNL1        0.0305
     31 C         140.1882  139.0858  165.2258 C.3     1  UNL1        0.1604
     32 C         138.7646  139.0945  164.7533 C.3     1  UNL1        0.1635
     33 O         137.8459  140.2081  165.1606 O.3     1  UNL1       -0.3799
     34 H         137.6987  140.1717  166.1187 H       1  UNL1        0.2105
@<TRIPOS>BOND
     1    18    19    1
     2    19     6    1
     3     6     7   ar
     4     7     8   ar
     5     8     1    1
     6     1     2   ar
     7     2     3   ar
     8     3     4   ar
     9     4    20    1
    10    20    22    1
    11    22    23   ar
    12    23    24   ar
    13    24    25   ar
    14    25    26   ar
    15    26    31    1
    16    31    32    1
    17    32    33    1
    18    24    27    1
    19    27    28    1
    20    28    29    1
    21    29    30    1
    22     4     5   ar
    23     8     9   ar
    24     9    10   ar
    25    10    11   ar
    26    11    12    1
    27    12    13   ar
    28    13    14   ar
    29    14    15   ar
    30    15    16    1
    31    15    17   ar
    32    11     6   ar
    33    17    12   ar
    34     5     1   ar
    35    26    22   ar
    36    30    23    1
    37    20    21    1
    38    33    34    1
@<TRIPOS>MOLECULE
*****
 34 38 0 0 0
SMALL
GASTEIGER

@<TRIPOS>ATOM
      1 C         140.0468  143.1174  162.5298 C.ar    1  UNL1        0.1074
      2 C         139.1443  143.6101  163.6220 C.ar    1  UNL1        0.0588
      3 S         139.3322  142.7206  164.8151 S.2     1  UNL1       -0.0508
      4 C         140.3507  141.6782  164.4603 C.ar    1  UNL1        0.1646
      5 N         140.7924  141.9234  163.0479 N.ar    1  UNL1       -0.2224
      6 C         139.6838  143.6301  158.6112 C.ar    1  UNL1        0.2416
      7 N         139.5503  143.0334  159.9810 N.ar    1  UNL1       -0.2089
      8 C         140.1802  143.7140  161.1601 C.ar    1  UNL1        0.1026
      9 C         140.9435  144.9911  160.9694 C.ar    1  UNL1        0.0224
     10 C         141.0769  145.5877  159.5995 C.ar    1  UNL1        0.0239
     11 C         140.4470  144.9072  158.4205 C.ar    1  UNL1        0.1189
     12 N         140.5805  145.5037  157.0507 N.ar    1  UNL1       -0.2826
     13 C         141.4744  145.0041  155.9546 C.ar    1  UNL1        0.1826
     14 N         141.2898  145.8962  154.7631 N.ar    1  UNL1       -0.2280
     15 C         140.2818  146.9473  155.1226 C.ar    1  UNL1        0.0786
     16 C         139.7973  148.0477  154.2258 C.3     1  UNL1        0.0538
     17 C         139.8434  146.7047  156.5365 C.ar    1  UNL1        0.0963
     18 C         137.6161  142.5262  157.4904 C.3     1  UNL1        0.2543
     19 O         139.0540  142.9495  157.4322 O.3     1  UNL1       -0.4551
     20 N         140.8415  140.5827  165.3599 N.pl3   1  UNL1       -0.2786
     21 H         141.5517  139.9742  165.0524 H       1  UNL1        0.1555
     22 C         140.2501  140.4144  166.7281 C.ar    1  UNL1        0.1276
     23 C         140.7018  141.1138  167.9759 C.ar    1  UNL1        0.0244
     24 C         139.8341  140.6489  169.1077 C.ar    1  UNL1        0.0773
     25 N         138.8463  139.6622  168.5594 N.ar    1  UNL1       -0.1728
     26 N         139.1034  139.5173  167.0888 N.ar    1  UNL1       -0.2357
     27 C         140.0557  141.1840  170.4914 C.3     1  UNL1        0.0474
     28 C         141.1449  142.1841  170.7432 C.3     1  UNL1        0.0067
     29 C         142.0126  142.6490  169.6114 C.3     1  UNL1        0.0052
     30 C         141.7910  142.1138  168.2277 C.3     1  UNL1        0.0305
     31 C         138.3466  138.6309  166.1445 C.3     1  UNL1        0.1604
     32 C         137.6533  137.4047  166.6598 C.3     1  UNL1        0.1635
     33 O         136.6266  137.5245  167.7468 O.3     1  UNL1       -0.3799
     34 H         137.0544  137.8246  168.5640 H       1  UNL1        0.2105
@<TRIPOS>BOND
     1    18    19    1
     2    19     6    1
     3     6     7   ar
     4     7     8   ar
     5     8     1    1
     6     1     2   ar
     7     2     3   ar
     8     3     4   ar
     9     4    20    1
    10    20    22    1
    11    22    23   ar
    12    23    24   ar
    13    24    25   ar
    14    25    26   ar
    15    26    31    1
    16    31    32    1
    17    32    33    1
    18    24    27    1
    19    27    28    1
    20    28    29    1
    21    29    30    1
    22     4     5   ar
    23     8     9   ar
    24     9    10   ar
    25    10    11   ar
    26    11    12    1
    27    12    13   ar
    28    13    14   ar
    29    14    15   ar
    30    15    16    1
    31    15    17   ar
    32    11     6   ar
    33    17    12   ar
    34     5     1   ar
    35    26    22   ar
    36    30    23    1
    37    20    21    1
    38    33    34    1
@<TRIPOS>MOLECULE
*****
 34 38 0 0 0
SMALL
GASTEIGER

@<TRIPOS>ATOM
      1 C         142.7895  137.5064  157.8417 C.ar    1  UNL1        0.1074
      2 C         142.7036  138.8781  157.2406 C.ar    1  UNL1        0.0588
      3 S         142.9732  139.8775  158.3262 S.2     1  UNL1       -0.0508
      4 C         143.2257  139.1235  159.5981 C.ar    1  UNL1        0.1646
      5 N         143.1122  137.6581  159.2986 N.ar    1  UNL1       -0.2224
      6 C         143.0824  133.6728  156.8579 C.ar    1  UNL1        0.2416
      7 N         143.2839  134.9686  157.5861 N.ar    1  UNL1       -0.2089
      8 C         142.5881  136.2106  157.1135 C.ar    1  UNL1        0.1026
      9 C         141.6908  136.1567  155.9126 C.ar    1  UNL1        0.0224
     10 C         141.4894  134.8608  155.1844 C.ar    1  UNL1        0.0239
     11 C         142.1852  133.6189  155.6571 C.ar    1  UNL1        0.1189
     12 N         141.9838  132.3231  154.9289 N.ar    1  UNL1       -0.2826
     13 C         143.0046  131.6173  154.0862 C.ar    1  UNL1        0.1826
     14 N         142.3779  130.3636  153.5521 N.ar    1  UNL1       -0.2280
     15 C         140.9698  130.2944  154.0646 C.ar    1  UNL1        0.0786
     16 C         139.9793  129.2054  153.7767 C.3     1  UNL1        0.0538
     17 C         140.7263  131.5055  154.9156 C.ar    1  UNL1        0.0963
     18 C         145.1265  132.5279  157.9808 C.3     1  UNL1        0.2543
     19 O         143.7783  132.4309  157.3306 O.3     1  UNL1       -0.4551
     20 N         143.5371  139.7287  160.9349 N.pl3   1  UNL1       -0.2786
     21 H         144.1778  140.4733  161.0010 H       1  UNL1        0.1555
     22 C         142.8725  139.1993  162.1710 C.ar    1  UNL1        0.1276
     23 C         141.4560  138.7162  162.2723 C.ar    1  UNL1        0.0244
     24 C         141.2156  138.2784  163.6867 C.ar    1  UNL1        0.0773
     25 N         142.4835  138.4909  164.4595 N.ar    1  UNL1       -0.1728
     26 N         143.5075  139.0601  163.5228 N.ar    1  UNL1       -0.2357
     27 C         139.8733  137.7428  164.0882 C.3     1  UNL1        0.0474
     28 C         138.7713  137.6450  163.0753 C.3     1  UNL1        0.0067
     29 C         139.0117  138.0828  161.6609 C.3     1  UNL1        0.0052
     30 C         140.3540  138.6184  161.2594 C.3     1  UNL1        0.0305
     31 C         144.9188  139.4258  163.8758 C.3     1  UNL1        0.1604
     32 C         145.3511  140.8618  163.8465 C.3     1  UNL1        0.1635
     33 O         145.6404  141.5313  162.5358 O.3     1  UNL1       -0.3799
     34 H         146.4177  141.1194  162.1269 H       1  UNL1        0.2105
@<TRIPOS>BOND
     1    18    19    1
     2    19     6    1
     3     6     7   ar
     4     7     8   ar
     5     8     1    1
     6     1     2   ar
     7     2     3   ar
     8     3     4   ar
     9     4    20    1
    10    20    22    1
    11    22    23   ar
    12    23    24   ar
    13    24    25   ar
    14    25    26   ar
    15    26    31    1
    16    31    32    1
    17    32    33    1
    18    24    27    1
    19    27    28    1
    20    28    29    1
    21    29    30    1
    22     4     5   ar
    23     8     9   ar
    24     9    10   ar
    25    10    11   ar
    26    11    12    1
    27    12    13   ar
    28    13    14   ar
    29    14    15   ar
    30    15    16    1
    31    15    17   ar
    32    11     6   ar
    33    17    12   ar
    34     5     1   ar
    35    26    22   ar
    36    30    23    1
    37    20    21    1
    38    33    34    1
