@<TRIPOS>MOLECULE
*****
 33 36 0 0 0
SMALL
GASTEIGER

@<TRIPOS>ATOM
      1 N         140.8649  137.6392  162.4211 N.3     1  UNL1       -0.2724
      2 C         142.1929  137.7607  161.7343 C.3     1  UNL1        0.0758
      3 C         142.2584  138.1933  160.2995 C.3     1  UNL1        0.0609
      4 C         140.9959  138.5044  159.5515 C.3     1  UNL1        0.1687
      5 C         139.6680  138.3828  160.2383 C.3     1  UNL1        0.0609
      6 C         139.6024  137.9502  161.6731 C.3     1  UNL1        0.0758
      7 C         140.7994  137.2066  163.8558 C.3     1  UNL1        0.0722
      8 N         141.6462  140.1654  167.1388 N.pl3   1  UNL1       -0.2932
      9 C         142.7665  139.3659  166.5424 C.3     1  UNL1        0.0922
     10 C         142.4842  138.3796  165.4481 C.3     1  UNL1        0.0229
     11 C         141.0816  138.1928  164.9501 C.3     1  UNL1        0.0194
     12 C         139.9613  138.9924  165.5466 C.3     1  UNL1        0.0229
     13 C         140.2436  139.9787  166.6409 C.3     1  UNL1        0.0922
     14 CA        141.0900  142.9364  169.9249 C.ar    1  UNL1        0.0966
     15 C         142.4928  143.1243  170.4218 C.ar    1  UNL1        0.0204
     16 C         143.6133  142.3259  169.8244 C.ar    1  UNL1        0.0044
     17 C         143.3312  141.3397  168.7301 C.ar    1  UNL1        0.0343
     18 C         141.9284  141.1518  168.2332 C.ar    1  UNL1        0.1317
     19 N         140.8079  141.9501  168.8306 N.ar    1  UNL1       -0.2295
     20 O         138.8654  143.0401  171.2628 O.co2   1  UNL1       -0.5430
     21 C         139.9695  143.7348  170.5224 C.2     1  UNL1        0.0905
     22 OXT       139.9530  145.2278  170.3793 O.co2   1  UNL1       -0.5430
     23 O         141.0615  138.9370  158.1168 O.3     1  UNL1       -0.4790
     24 C         141.2770  137.9196  157.0358 C.ar    1  UNL1        0.1392
     25 C         140.1149  137.4313  156.2229 C.ar    1  UNL1        0.0367
     26 C         140.3304  136.4140  155.1419 C.ar    1  UNL1        0.0021
     27 C         141.7081  135.8850  154.8738 C.ar    1  UNL1        0.0177
     28 C         142.8704  136.3733  155.6867 C.ar    1  UNL1        0.0590
     29 CL        144.2481  135.8442  155.4186 Cl      1  UNL1       -0.0824
     30 C         142.6549  137.3906  156.7677 C.ar    1  UNL1        0.0480
     31 C         141.9237  134.8676  153.7928 C.3     1  UNL1        0.1644
     32 O         141.2982  133.5090  153.9059 O.3     1  UNL1       -0.3772
     33 H         141.6895  133.0344  154.6559 H       1  UNL1        0.2109
@<TRIPOS>UNITY_ATOM_ATTR
20 1
charge -1
@<TRIPOS>BOND
     1    20    21   ar
     2    21    22   ar
     3    21    14    1
     4    14    15   ar
     5    15    16   ar
     6    16    17   ar
     7    17    18   ar
     8    18     8    1
     9     8     9    1
    10     9    10    1
    11    10    11    1
    12    11     7    1
    13     7     1    1
    14     1     2    1
    15     2     3    1
    16     3     4    1
    17     4    23    1
    18    23    24    1
    19    24    25   ar
    20    25    26   ar
    21    26    27   ar
    22    27    31    1
    23    31    32    1
    24    27    28   ar
    25    28    29    1
    26    28    30   ar
    27     4     5    1
    28     5     6    1
    29    11    12    1
    30    12    13    1
    31    18    19   ar
    32    19    14   ar
    33    13     8    1
    34     6     1    1
    35    30    24   ar
    36    32    33    1
@<TRIPOS>MOLECULE
*****
 33 36 0 0 0
SMALL
GASTEIGER

@<TRIPOS>ATOM
      1 N         142.0930  144.1212  160.3947 N.3     1  UNL1       -0.2724
      2 C         142.1402  143.1270  159.2725 C.3     1  UNL1        0.0758
      3 C         141.2518  143.3030  158.0767 C.3     1  UNL1        0.0609
      4 C         140.3163  144.4732  158.0031 C.3     1  UNL1        0.1687
      5 C         140.2692  145.4674  159.1253 C.3     1  UNL1        0.0609
      6 C         141.1574  145.2915  160.3210 C.3     1  UNL1        0.0758
      7 C         142.9812  143.9452  161.5905 C.3     1  UNL1        0.0722
      8 N         141.2835  142.3451  165.4385 N.pl3   1  UNL1       -0.2932
      9 C         140.4602  142.3135  164.1850 C.3     1  UNL1        0.0922
     10 C         141.0261  142.8469  162.9023 C.3     1  UNL1        0.0229
     11 C         142.4153  143.4119  162.8731 C.3     1  UNL1        0.0194
     12 C         143.2386  143.4434  164.1266 C.3     1  UNL1        0.0229
     13 C         142.6727  142.9100  165.4093 C.3     1  UNL1        0.0922
     14 CA        140.1634  142.1285  169.2396 C.ar    1  UNL1        0.0966
     15 C         139.5858  140.7450  169.2865 C.ar    1  UNL1        0.0204
     16 C         139.5741  139.8948  168.0508 C.ar    1  UNL1        0.0044
     17 C         140.1400  140.4281  166.7681 C.ar    1  UNL1        0.0343
     18 C         140.7176  141.8117  166.7212 C.ar    1  UNL1        0.1317
     19 N         140.7292  142.6619  167.9569 N.ar    1  UNL1       -0.2295
     20 O         140.2711  142.3358  171.8271 O.co2   1  UNL1       -0.5430
     21 C         140.1750  142.9787  170.4753 C.2     1  UNL1        0.0905
     22 OXT       140.0907  144.4718  170.3593 O.co2   1  UNL1       -0.5430
     23 O         139.4281  144.6491  156.8073 O.3     1  UNL1       -0.4790
     24 C         139.6042  145.8387  155.9107 C.ar    1  UNL1        0.1392
     25 C         140.4488  145.7288  154.6760 C.ar    1  UNL1        0.0367
     26 C         140.6249  146.9184  153.7794 C.ar    1  UNL1        0.0021
     27 C         139.9564  148.2179  154.1176 C.ar    1  UNL1        0.0177
     28 C         139.1118  148.3279  155.3523 C.ar    1  UNL1        0.0590
     29 CL        138.4433  149.6274  155.6905 Cl      1  UNL1       -0.0824
     30 C         138.9357  147.1383  156.2489 C.ar    1  UNL1        0.0480
     31 C         140.1325  149.4075  153.2210 C.3     1  UNL1        0.1644
     32 O         141.2570  150.3700  153.4641 O.3     1  UNL1       -0.3772
     33 H         141.1172  150.8236  154.3100 H       1  UNL1        0.2109
@<TRIPOS>UNITY_ATOM_ATTR
20 1
charge -1
@<TRIPOS>BOND
     1    20    21   ar
     2    21    22   ar
     3    21    14    1
     4    14    15   ar
     5    15    16   ar
     6    16    17   ar
     7    17    18   ar
     8    18     8    1
     9     8     9    1
    10     9    10    1
    11    10    11    1
    12    11     7    1
    13     7     1    1
    14     1     2    1
    15     2     3    1
    16     3     4    1
    17     4    23    1
    18    23    24    1
    19    24    25   ar
    20    25    26   ar
    21    26    27   ar
    22    27    31    1
    23    31    32    1
    24    27    28   ar
    25    28    29    1
    26    28    30   ar
    27     4     5    1
    28     5     6    1
    29    11    12    1
    30    12    13    1
    31    18    19   ar
    32    19    14   ar
    33    13     8    1
    34     6     1    1
    35    30    24   ar
    36    32    33    1
@<TRIPOS>MOLECULE
*****
 33 36 0 0 0
SMALL
GASTEIGER

@<TRIPOS>ATOM
      1 N         140.3654  138.7198  159.8019 N.3     1  UNL1       -0.2724
      2 C         141.7805  138.4784  160.2369 C.3     1  UNL1        0.0758
      3 C         142.7920  137.9719  159.2517 C.3     1  UNL1        0.0609
      4 C         142.3882  137.7067  157.8316 C.3     1  UNL1        0.1687
      5 C         140.9731  137.9480  157.3966 C.3     1  UNL1        0.0609
      6 C         139.9617  138.4545  158.3817 C.3     1  UNL1        0.0758
      7 C         139.3540  139.2263  160.7870 C.3     1  UNL1        0.0722
      8 N         140.4344  139.5781  165.1412 N.pl3   1  UNL1       -0.2932
      9 C         140.6850  140.7278  164.2110 C.3     1  UNL1        0.0922
     10 C         140.3249  140.6106  162.7595 C.3     1  UNL1        0.0229
     11 C         139.7141  139.3436  162.2383 C.3     1  UNL1        0.0194
     12 C         139.4635  138.1938  163.1686 C.3     1  UNL1        0.0229
     13 C         139.8236  138.3111  164.6200 C.3     1  UNL1        0.0922
     14 CA        140.1167  140.2309  169.0428 C.ar    1  UNL1        0.0966
     15 C         141.5147  139.9298  169.4954 C.ar    1  UNL1        0.0204
     16 C         142.5526  139.5115  168.4966 C.ar    1  UNL1        0.0044
     17 C         142.1925  139.3942  167.0452 C.ar    1  UNL1        0.0343
     18 C         140.7945  139.6953  166.5926 C.ar    1  UNL1        0.1317
     19 N         139.7566  140.1137  167.5914 N.ar    1  UNL1       -0.2295
     20 O         139.1538  142.0055  170.6780 O.co2   1  UNL1       -0.5430
     21 C         139.0787  140.6493  170.0416 C.2     1  UNL1        0.0905
     22 OXT       137.9657  139.7114  170.4042 O.co2   1  UNL1       -0.5430
     23 O         143.3996  137.2001  156.8465 O.3     1  UNL1       -0.4790
     24 C         143.1688  135.8992  156.1364 C.ar    1  UNL1        0.1392
     25 C         143.4404  134.6024  156.8396 C.ar    1  UNL1        0.0367
     26 C         143.2095  133.3015  156.1295 C.ar    1  UNL1        0.0021
     27 C         142.7071  133.2973  154.7162 C.ar    1  UNL1        0.0177
     28 C         142.4354  134.5942  154.0129 C.ar    1  UNL1        0.0590
     29 CL        141.9330  134.5900  152.5996 Cl      1  UNL1       -0.0824
     30 C         142.6663  135.8951  154.7230 C.ar    1  UNL1        0.0480
     31 C         142.4762  131.9964  154.0061 C.3     1  UNL1        0.1644
     32 O         143.6181  131.2990  153.3281 O.3     1  UNL1       -0.3772
     33 H         143.9295  131.8373  152.5837 H       1  UNL1        0.2109
@<TRIPOS>UNITY_ATOM_ATTR
20 1
charge -1
@<TRIPOS>BOND
     1    20    21   ar
     2    21    22   ar
     3    21    14    1
     4    14    15   ar
     5    15    16   ar
     6    16    17   ar
     7    17    18   ar
     8    18     8    1
     9     8     9    1
    10     9    10    1
    11    10    11    1
    12    11     7    1
    13     7     1    1
    14     1     2    1
    15     2     3    1
    16     3     4    1
    17     4    23    1
    18    23    24    1
    19    24    25   ar
    20    25    26   ar
    21    26    27   ar
    22    27    31    1
    23    31    32    1
    24    27    28   ar
    25    28    29    1
    26    28    30   ar
    27     4     5    1
    28     5     6    1
    29    11    12    1
    30    12    13    1
    31    18    19   ar
    32    19    14   ar
    33    13     8    1
    34     6     1    1
    35    30    24   ar
    36    32    33    1
@<TRIPOS>MOLECULE
*****
 33 36 0 0 0
SMALL
GASTEIGER

@<TRIPOS>ATOM
      1 N         138.6461  138.8117  162.8255 N.3     1  UNL1       -0.2724
      2 C         138.1089  140.0216  163.5310 C.3     1  UNL1        0.0758
      3 C         138.1072  140.0766  165.0300 C.3     1  UNL1        0.0609
      4 C         138.6427  138.9218  165.8235 C.3     1  UNL1        0.1687
      5 C         139.1798  137.7119  165.1180 C.3     1  UNL1        0.0609
      6 C         139.1816  137.6569  163.6190 C.3     1  UNL1        0.0758
      7 C         138.6478  138.7567  161.3265 C.3     1  UNL1        0.0722
      8 N         139.8371  142.3838  158.9433 N.pl3   1  UNL1       -0.2932
      9 C         140.7287  141.8816  160.0400 C.3     1  UNL1        0.0922
     10 C         140.3323  140.6725  160.8344 C.3     1  UNL1        0.0229
     11 C         139.0442  139.9657  160.5321 C.3     1  UNL1        0.0194
     12 C         138.1526  140.4680  159.4354 C.3     1  UNL1        0.0229
     13 C         138.5490  141.6770  158.6410 C.3     1  UNL1        0.0922
     14 CA        139.6650  145.4074  156.3785 C.ar    1  UNL1        0.0966
     15 C         141.0262  146.0109  156.5600 C.ar    1  UNL1        0.0204
     16 C         141.9910  145.4053  157.5358 C.ar    1  UNL1        0.0044
     17 C         141.5947  144.1963  158.3303 C.ar    1  UNL1        0.0343
     18 C         140.2335  143.5929  158.1488 C.ar    1  UNL1        0.1317
     19 N         139.2686  144.1984  157.1730 N.ar    1  UNL1       -0.2295
     20 O         137.5083  145.2280  154.9410 O.co2   1  UNL1       -0.5430
     21 C         138.7001  146.0130  155.4027 C.2     1  UNL1        0.0905
     22 OXT       138.9271  147.4037  154.8884 O.co2   1  UNL1       -0.5430
     23 O         138.6409  138.9768  167.3224 O.3     1  UNL1       -0.4790
     24 C         139.5046  139.9732  168.0374 C.ar    1  UNL1        0.1392
     25 C         139.1368  140.4307  169.4177 C.ar    1  UNL1        0.0367
     26 C         140.0005  141.4272  170.1326 C.ar    1  UNL1        0.0021
     27 C         141.2320  141.9661  169.4672 C.ar    1  UNL1        0.0177
     28 C         141.5999  141.5086  168.0868 C.ar    1  UNL1        0.0590
     29 CL        142.8315  142.0475  167.4214 Cl      1  UNL1       -0.0824
     30 C         140.7363  140.5122  167.3719 C.ar    1  UNL1        0.0480
     31 C         142.0957  142.9626  170.1821 C.3     1  UNL1        0.1644
     32 O         142.4843  142.7289  171.6119 O.3     1  UNL1       -0.3772
     33 H         141.6936  142.7678  172.1724 H       1  UNL1        0.2109
@<TRIPOS>UNITY_ATOM_ATTR
20 1
charge -1
@<TRIPOS>BOND
     1    20    21   ar
     2    21    22   ar
     3    21    14    1
     4    14    15   ar
     5    15    16   ar
     6    16    17   ar
     7    17    18   ar
     8    18     8    1
     9     8     9    1
    10     9    10    1
    11    10    11    1
    12    11     7    1
    13     7     1    1
    14     1     2    1
    15     2     3    1
    16     3     4    1
    17     4    23    1
    18    23    24    1
    19    24    25   ar
    20    25    26   ar
    21    26    27   ar
    22    27    31    1
    23    31    32    1
    24    27    28   ar
    25    28    29    1
    26    28    30   ar
    27     4     5    1
    28     5     6    1
    29    11    12    1
    30    12    13    1
    31    18    19   ar
    32    19    14   ar
    33    13     8    1
    34     6     1    1
    35    30    24   ar
    36    32    33    1
@<TRIPOS>MOLECULE
*****
 33 36 0 0 0
SMALL
GASTEIGER

@<TRIPOS>ATOM
      1 N         140.4111  138.7510  160.4713 N.3     1  UNL1       -0.2724
      2 C         141.7456  138.2201  160.9041 C.3     1  UNL1        0.0758
      3 C         142.7320  137.7447  159.8789 C.3     1  UNL1        0.0609
      4 C         142.3841  137.8003  158.4210 C.3     1  UNL1        0.1687
      5 C         141.0496  138.3312  157.9881 C.3     1  UNL1        0.0609
      6 C         140.0632  138.8065  159.0132 C.3     1  UNL1        0.0758
      7 C         139.4247  139.2263  161.4964 C.3     1  UNL1        0.0722
      8 N         140.8740  140.7733  165.4658 N.pl3   1  UNL1       -0.2932
      9 C         140.1113  139.4836  165.3967 C.3     1  UNL1        0.0922
     10 C         139.6281  138.9679  164.0736 C.3     1  UNL1        0.0229
     11 C         139.9078  139.7420  162.8195 C.3     1  UNL1        0.0194
     12 C         140.6706  141.0317  162.8886 C.3     1  UNL1        0.0229
     13 C         141.1537  141.5474  164.2117 C.3     1  UNL1        0.0922
     14 CA        140.9470  141.7363  169.3151 C.ar    1  UNL1        0.0966
     15 C         142.3233  142.3204  169.4352 C.ar    1  UNL1        0.0204
     16 C         143.2166  142.3889  168.2321 C.ar    1  UNL1        0.0044
     17 C         142.7335  141.8732  166.9090 C.ar    1  UNL1        0.0343
     18 C         141.3572  141.2891  166.7889 C.ar    1  UNL1        0.1317
     19 N         140.4639  141.2206  167.9920 N.ar    1  UNL1       -0.2295
     20 O         140.5693  142.0952  171.8604 O.co2   1  UNL1       -0.5430
     21 C         140.0537  141.6679  170.5182 C.2     1  UNL1        0.0905
     22 OXT       138.6449  141.1722  170.3791 O.co2   1  UNL1       -0.5430
     23 O         143.3705  137.3249  157.3958 O.3     1  UNL1       -0.4790
     24 C         143.0604  136.1192  156.5591 C.ar    1  UNL1        0.1392
     25 C         142.6839  136.2841  155.1166 C.ar    1  UNL1        0.0367
     26 C         142.3738  135.0783  154.2799 C.ar    1  UNL1        0.0021
     27 C         142.4403  133.7078  154.8857 C.ar    1  UNL1        0.0177
     28 C         142.8169  133.5429  156.3283 C.ar    1  UNL1        0.0590
     29 CL        142.8834  132.1723  156.9341 Cl      1  UNL1       -0.0824
     30 C         143.1270  134.7486  157.1650 C.ar    1  UNL1        0.0480
     31 C         142.1302  132.5021  154.0489 C.3     1  UNL1        0.1644
     32 O         143.2226  131.8244  153.2761 O.3     1  UNL1       -0.3772
     33 H         143.5485  132.4221  152.5851 H       1  UNL1        0.2109
@<TRIPOS>UNITY_ATOM_ATTR
20 1
charge -1
@<TRIPOS>BOND
     1    20    21   ar
     2    21    22   ar
     3    21    14    1
     4    14    15   ar
     5    15    16   ar
     6    16    17   ar
     7    17    18   ar
     8    18     8    1
     9     8     9    1
    10     9    10    1
    11    10    11    1
    12    11     7    1
    13     7     1    1
    14     1     2    1
    15     2     3    1
    16     3     4    1
    17     4    23    1
    18    23    24    1
    19    24    25   ar
    20    25    26   ar
    21    26    27   ar
    22    27    31    1
    23    31    32    1
    24    27    28   ar
    25    28    29    1
    26    28    30   ar
    27     4     5    1
    28     5     6    1
    29    11    12    1
    30    12    13    1
    31    18    19   ar
    32    19    14   ar
    33    13     8    1
    34     6     1    1
    35    30    24   ar
    36    32    33    1
@<TRIPOS>MOLECULE
*****
 33 36 0 0 0
SMALL
GASTEIGER

@<TRIPOS>ATOM
      1 N         138.3200  141.9184  160.9941 N.3     1  UNL1       -0.2724
      2 C         138.7616  142.5638  159.7141 C.3     1  UNL1        0.0758
      3 C         138.8820  141.7443  158.4634 C.3     1  UNL1        0.0609
      4 C         138.5608  140.2794  158.4929 C.3     1  UNL1        0.1687
      5 C         138.1193  139.6340  159.7729 C.3     1  UNL1        0.0609
      6 C         137.9989  140.4534  161.0234 C.3     1  UNL1        0.0758
      7 C         138.1996  142.7378  162.2447 C.3     1  UNL1        0.0722
      8 N         140.3949  141.4928  165.9703 N.pl3   1  UNL1       -0.2932
      9 C         139.0105  140.9783  165.7083 C.3     1  UNL1        0.0922
     10 C         138.2787  141.3933  164.4664 C.3     1  UNL1        0.0229
     11 C         138.9314  142.3228  163.4865 C.3     1  UNL1        0.0194
     12 C         140.3159  142.8372  163.7486 C.3     1  UNL1        0.0229
     13 C         141.0476  142.4222  164.9905 C.3     1  UNL1        0.0922
     14 CA        141.8052  141.5259  169.6798 C.ar    1  UNL1        0.0966
     15 C         142.5903  140.2479  169.6960 C.ar    1  UNL1        0.0204
     16 C         142.6436  139.3848  168.4703 C.ar    1  UNL1        0.0044
     17 C         141.9118  139.7998  167.2285 C.ar    1  UNL1        0.0343
     18 C         141.1267  141.0778  167.2122 C.ar    1  UNL1        0.1317
     19 N         141.0734  141.9409  168.4379 N.ar    1  UNL1       -0.2295
     20 O         142.7409  143.5028  171.0820 O.co2   1  UNL1       -0.5430
     21 C         141.7519  142.3890  170.9055 C.2     1  UNL1        0.0905
     22 OXT       140.7096  142.1383  171.9545 O.co2   1  UNL1       -0.5430
     23 O         138.6812  139.4600  157.2423 O.3     1  UNL1       -0.4790
     24 C         139.8883  138.5966  157.0247 C.ar    1  UNL1        0.1392
     25 C         141.1897  138.9470  157.6831 C.ar    1  UNL1        0.0367
     26 C         142.3968  138.0836  157.4655 C.ar    1  UNL1        0.0021
     27 C         142.3026  136.8697  156.5894 C.ar    1  UNL1        0.0177
     28 C         141.0012  136.5192  155.9309 C.ar    1  UNL1        0.0590
     29 CL        140.9069  135.3053  155.0548 Cl      1  UNL1       -0.0824
     30 C         139.7941  137.3827  156.1485 C.ar    1  UNL1        0.0480
     31 C         143.5097  136.0063  156.3718 C.3     1  UNL1        0.1644
     32 O         144.4035  136.2502  155.1922 O.3     1  UNL1       -0.3772
     33 H         143.9183  136.0600  154.3741 H       1  UNL1        0.2109
@<TRIPOS>UNITY_ATOM_ATTR
20 1
charge -1
@<TRIPOS>BOND
     1    20    21   ar
     2    21    22   ar
     3    21    14    1
     4    14    15   ar
     5    15    16   ar
     6    16    17   ar
     7    17    18   ar
     8    18     8    1
     9     8     9    1
    10     9    10    1
    11    10    11    1
    12    11     7    1
    13     7     1    1
    14     1     2    1
    15     2     3    1
    16     3     4    1
    17     4    23    1
    18    23    24    1
    19    24    25   ar
    20    25    26   ar
    21    26    27   ar
    22    27    31    1
    23    31    32    1
    24    27    28   ar
    25    28    29    1
    26    28    30   ar
    27     4     5    1
    28     5     6    1
    29    11    12    1
    30    12    13    1
    31    18    19   ar
    32    19    14   ar
    33    13     8    1
    34     6     1    1
    35    30    24   ar
    36    32    33    1
@<TRIPOS>MOLECULE
*****
 33 36 0 0 0
SMALL
GASTEIGER

@<TRIPOS>ATOM
      1 N         142.9098  141.1810  162.1648 N.3     1  UNL1       -0.2724
      2 C         143.3908  141.6067  163.5203 C.3     1  UNL1        0.0758
      3 C         142.4045  142.0396  164.5643 C.3     1  UNL1        0.0609
      4 C         140.9373  142.0469  164.2528 C.3     1  UNL1        0.1687
      5 C         140.4563  141.6212  162.8972 C.3     1  UNL1        0.0609
      6 C         141.4425  141.1882  161.8533 C.3     1  UNL1        0.0758
      7 C         143.8960  140.7481  161.1209 C.3     1  UNL1        0.0722
      8 N         142.7991  137.5102  158.1947 N.pl3   1  UNL1       -0.2932
      9 C         142.9283  138.9300  157.7285 C.3     1  UNL1        0.0922
     10 C         143.2939  140.0093  158.7039 C.3     1  UNL1        0.0229
     11 C         143.5304  139.6688  160.1455 C.3     1  UNL1        0.0194
     12 C         143.4012  138.2489  160.6116 C.3     1  UNL1        0.0229
     13 C         143.0355  137.1696  159.6362 C.3     1  UNL1        0.0922
     14 CA        142.7069  133.9985  156.3482 C.ar    1  UNL1        0.0966
     15 C         141.7022  134.2722  155.2686 C.ar    1  UNL1        0.0204
     16 C         141.0631  135.6252  155.1644 C.ar    1  UNL1        0.0044
     17 C         141.4287  136.7045  156.1397 C.ar    1  UNL1        0.0343
     18 C         142.4334  136.4308  157.2193 C.ar    1  UNL1        0.1317
     19 N         143.0726  135.0778  157.3235 N.ar    1  UNL1       -0.2295
     20 O         142.5733  131.4928  157.0218 O.co2   1  UNL1       -0.5430
     21 C         143.3461  132.6455  156.4524 C.2     1  UNL1        0.0905
     22 OXT       144.7580  132.4451  155.9873 O.co2   1  UNL1       -0.5430
     23 O         139.9510  142.4798  165.2967 O.3     1  UNL1       -0.4790
     24 C         140.0723  141.9676  166.7013 C.ar    1  UNL1        0.1392
     25 C         139.6849  140.5540  167.0202 C.ar    1  UNL1        0.0367
     26 C         139.8061  140.0418  168.4248 C.ar    1  UNL1        0.0021
     27 C         140.3148  140.9432  169.5105 C.ar    1  UNL1        0.0177
     28 C         140.7023  142.3568  169.1917 C.ar    1  UNL1        0.0590
     29 CL        141.2109  143.2581  170.2774 Cl      1  UNL1       -0.0824
     30 C         140.5810  142.8690  167.7870 C.ar    1  UNL1        0.0480
     31 C         140.4361  140.4310  170.9152 C.3     1  UNL1        0.1644
     32 O         139.5841  139.2838  171.3713 O.3     1  UNL1       -0.3772
     33 H         138.6528  139.5551  171.3773 H       1  UNL1        0.2109
@<TRIPOS>UNITY_ATOM_ATTR
20 1
charge -1
@<TRIPOS>BOND
     1    20    21   ar
     2    21    22   ar
     3    21    14    1
     4    14    15   ar
     5    15    16   ar
     6    16    17   ar
     7    17    18   ar
     8    18     8    1
     9     8     9    1
    10     9    10    1
    11    10    11    1
    12    11     7    1
    13     7     1    1
    14     1     2    1
    15     2     3    1
    16     3     4    1
    17     4    23    1
    18    23    24    1
    19    24    25   ar
    20    25    26   ar
    21    26    27   ar
    22    27    31    1
    23    31    32    1
    24    27    28   ar
    25    28    29    1
    26    28    30   ar
    27     4     5    1
    28     5     6    1
    29    11    12    1
    30    12    13    1
    31    18    19   ar
    32    19    14   ar
    33    13     8    1
    34     6     1    1
    35    30    24   ar
    36    32    33    1
@<TRIPOS>MOLECULE
*****
 33 36 0 0 0
SMALL
GASTEIGER

@<TRIPOS>ATOM
      1 N         139.1437  138.4136  161.7099 N.3     1  UNL1       -0.2724
      2 C         137.9541  139.3229  161.7999 C.3     1  UNL1        0.0758
      3 C         137.5962  140.2066  160.6418 C.3     1  UNL1        0.0609
      4 C         138.4279  140.1809  159.3938 C.3     1  UNL1        0.1687
      5 C         139.6174  139.2716  159.3038 C.3     1  UNL1        0.0609
      6 C         139.9753  138.3880  160.4618 C.3     1  UNL1        0.0758
      7 C         139.5016  137.5300  162.8679 C.3     1  UNL1        0.0722
      8 N         141.0155  139.3434  166.6980 N.pl3   1  UNL1       -0.2932
      9 C         141.9703  138.6664  165.7600 C.3     1  UNL1        0.0922
     10 C         141.4657  138.0618  164.4833 C.3     1  UNL1        0.0229
     11 C         140.0062  138.1345  164.1446 C.3     1  UNL1        0.0194
     12 C         139.0514  138.8116  165.0827 C.3     1  UNL1        0.0229
     13 C         139.5561  139.4161  166.3593 C.3     1  UNL1        0.0922
     14 CA        141.7007  141.9784  169.5854 C.ar    1  UNL1        0.0966
     15 C         142.5293  141.1570  170.5280 C.ar    1  UNL1        0.0204
     16 C         142.8534  139.7310  170.1940 C.ar    1  UNL1        0.0044
     17 C         142.3488  139.1265  168.9173 C.ar    1  UNL1        0.0343
     18 C         141.5202  139.9479  167.9747 C.ar    1  UNL1        0.1317
     19 N         141.1961  141.3739  168.3088 N.ar    1  UNL1       -0.2295
     20 O         142.3680  144.2426  170.6709 O.co2   1  UNL1       -0.5430
     21 C         141.3766  143.4044  169.9195 C.2     1  UNL1        0.0905
     22 OXT       140.0613  143.9922  169.5021 O.co2   1  UNL1       -0.5430
     23 O         138.0700  141.0645  158.2357 O.3     1  UNL1       -0.4790
     24 C         138.8406  142.3277  157.9900 C.ar    1  UNL1        0.1392
     25 C         139.2226  142.7133  156.5916 C.ar    1  UNL1        0.0367
     26 C         139.9932  143.9765  156.3459 C.ar    1  UNL1        0.0021
     27 C         140.3818  144.8542  157.4985 C.ar    1  UNL1        0.0177
     28 C         139.9998  144.4687  158.8969 C.ar    1  UNL1        0.0590
     29 CL        140.3884  145.3465  160.0495 Cl      1  UNL1       -0.0824
     30 C         139.2292  143.2055  159.1427 C.ar    1  UNL1        0.0480
     31 C         141.1524  146.1175  157.2527 C.3     1  UNL1        0.1644
     32 O         142.6011  146.1982  157.6330 O.3     1  UNL1       -0.3772
     33 H         142.6858  146.1415  158.5976 H       1  UNL1        0.2109
@<TRIPOS>UNITY_ATOM_ATTR
20 1
charge -1
@<TRIPOS>BOND
     1    20    21   ar
     2    21    22   ar
     3    21    14    1
     4    14    15   ar
     5    15    16   ar
     6    16    17   ar
     7    17    18   ar
     8    18     8    1
     9     8     9    1
    10     9    10    1
    11    10    11    1
    12    11     7    1
    13     7     1    1
    14     1     2    1
    15     2     3    1
    16     3     4    1
    17     4    23    1
    18    23    24    1
    19    24    25   ar
    20    25    26   ar
    21    26    27   ar
    22    27    31    1
    23    31    32    1
    24    27    28   ar
    25    28    29    1
    26    28    30   ar
    27     4     5    1
    28     5     6    1
    29    11    12    1
    30    12    13    1
    31    18    19   ar
    32    19    14   ar
    33    13     8    1
    34     6     1    1
    35    30    24   ar
    36    32    33    1
@<TRIPOS>MOLECULE
*****
 33 36 0 0 0
SMALL
GASTEIGER

@<TRIPOS>ATOM
      1 N         142.5662  143.8621  160.4177 N.3     1  UNL1       -0.2724
      2 C         142.9236  143.4677  159.0153 C.3     1  UNL1        0.0758
      3 C         142.0864  143.9447  157.8656 C.3     1  UNL1        0.0609
      4 C         140.8919  144.8160  158.1184 C.3     1  UNL1        0.1687
      5 C         140.5345  145.2103  159.5208 C.3     1  UNL1        0.0609
      6 C         141.3716  144.7334  160.6704 C.3     1  UNL1        0.0758
      7 C         143.4033  143.3851  161.5673 C.3     1  UNL1        0.0722
      8 N         141.4302  142.0404  165.3816 N.pl3   1  UNL1       -0.2932
      9 C         141.7663  141.0382  164.3173 C.3     1  UNL1        0.0922
     10 C         142.4240  141.4864  163.0459 C.3     1  UNL1        0.0229
     11 C         142.7456  142.9369  162.8387 C.3     1  UNL1        0.0194
     12 C         142.4094  143.9390  163.9031 C.3     1  UNL1        0.0229
     13 C         141.7518  143.4908  165.1745 C.3     1  UNL1        0.0922
     14 CA        140.1908  142.0034  169.1515 C.ar    1  UNL1        0.0966
     15 C         139.4571  140.6958  169.1959 C.ar    1  UNL1        0.0204
     16 C         139.3812  139.8364  167.9689 C.ar    1  UNL1        0.0044
     17 C         140.0388  140.2846  166.6974 C.ar    1  UNL1        0.0343
     18 C         140.7725  141.5921  166.6531 C.ar    1  UNL1        0.1317
     19 N         140.8484  142.4515  167.8801 N.ar    1  UNL1       -0.2295
     20 O         140.4975  142.2347  171.7210 O.co2   1  UNL1       -0.5430
     21 C         140.2667  142.8628  170.3786 C.2     1  UNL1        0.0905
     22 OXT       140.1119  144.3503  170.2632 O.co2   1  UNL1       -0.5430
     23 O         140.0548  145.2929  156.9687 O.3     1  UNL1       -0.4790
     24 C         138.9355  144.4391  156.4509 C.ar    1  UNL1        0.1392
     25 C         138.1320  144.8921  155.2681 C.ar    1  UNL1        0.0367
     26 C         137.0127  144.0382  154.7503 C.ar    1  UNL1        0.0021
     27 C         136.6969  142.7314  155.4153 C.ar    1  UNL1        0.0177
     28 C         137.5004  142.2783  156.5982 C.ar    1  UNL1        0.0590
     29 CL        137.1846  140.9714  157.2632 Cl      1  UNL1       -0.0824
     30 C         138.6197  143.1321  157.1160 C.ar    1  UNL1        0.0480
     31 C         135.5776  141.8775  154.8975 C.3     1  UNL1        0.1644
     32 O         134.3295  141.7029  155.7108 O.3     1  UNL1       -0.3772
     33 H         134.5392  141.2193  156.5251 H       1  UNL1        0.2109
@<TRIPOS>UNITY_ATOM_ATTR
20 1
charge -1
@<TRIPOS>BOND
     1    20    21   ar
     2    21    22   ar
     3    21    14    1
     4    14    15   ar
     5    15    16   ar
     6    16    17   ar
     7    17    18   ar
     8    18     8    1
     9     8     9    1
    10     9    10    1
    11    10    11    1
    12    11     7    1
    13     7     1    1
    14     1     2    1
    15     2     3    1
    16     3     4    1
    17     4    23    1
    18    23    24    1
    19    24    25   ar
    20    25    26   ar
    21    26    27   ar
    22    27    31    1
    23    31    32    1
    24    27    28   ar
    25    28    29    1
    26    28    30   ar
    27     4     5    1
    28     5     6    1
    29    11    12    1
    30    12    13    1
    31    18    19   ar
    32    19    14   ar
    33    13     8    1
    34     6     1    1
    35    30    24   ar
    36    32    33    1
