@<TRIPOS>MOLECULE
*****
 30 34 0 0 0
SMALL
GASTEIGER

@<TRIPOS>ATOM
      1 N         143.5284  142.2696  165.5815 N.pl3   1  UNL1       -0.3133
      2 C         142.6900  141.9522  166.7843 C.2     1  UNL1        0.2770
      3 N         141.4482  141.1109  166.7962 N.2     1  UNL1       -0.2204
      4 C         140.9370  141.0591  168.2055 C.3     1  UNL1        0.1537
      5 C         141.8629  141.8684  169.0644 C.3     1  UNL1        0.2350
      6 O         142.9463  142.4203  168.1861 O.2     1  UNL1       -0.4478
      7 C         140.1038  140.2875  167.2255 C.ar    1  UNL1        0.0367
      8 C         140.4931  140.2483  165.7774 C.ar    1  UNL1        0.0153
      9 C         139.6599  139.4766  164.7974 C.ar    1  UNL1        0.0506
     10 C         138.4374  138.7442  165.2655 C.ar    1  UNL1        0.0178
     11 C         138.0482  138.7834  166.7137 C.ar    1  UNL1        0.0379
     12 C         138.8814  139.5550  167.6936 C.ar    1  UNL1        0.1364
     13 O         138.4921  139.5942  169.1418 O.3     1  UNL1       -0.4756
     14 C         139.3253  140.3659  170.1217 C.3     1  UNL1        0.2074
     15 C         140.5478  141.0983  169.6536 C.3     1  UNL1        0.0666
     16 C         141.7346  141.9667  169.9491 C.3     1  UNL1        0.0061
     17 C         140.8041  141.5665  171.0554 C.3     1  UNL1        0.0061
     18 H         143.2772  141.9138  164.6986 H       1  UNL1        0.1466
     19 H         144.3297  142.8337  165.6751 H       1  UNL1        0.1466
     20 N         140.0491  139.4374  163.3494 N.am    1  UNL1       -0.2779
     21 C         140.7326  138.2255  162.7890 C.2     1  UNL1        0.2855
     22 O         141.0268  137.0527  163.6767 O.2     1  UNL1       -0.2664
     23 H         139.8560  140.2072  162.7667 H       1  UNL1        0.1553
     24 C         141.1219  138.1863  161.3409 C.ar    1  UNL1        0.2173
     25 N         140.1296  138.5787  160.2867 N.ar    1  UNL1       -0.2207
     26 C         140.5189  138.5395  158.8386 C.ar    1  UNL1        0.1089
     27 C         141.9004  138.1079  158.4448 C.ar    1  UNL1        0.0729
     28 BR        142.2897  138.0687  156.9967 Br      1  UNL1       -0.0458
     29 C         142.8927  137.7155  159.4990 C.ar    1  UNL1        0.1089
     30 N         142.5034  137.7546  160.9471 N.ar    1  UNL1       -0.2207
@<TRIPOS>BOND
     1     1     2    1
     2     2     3    2
     3     3     4    1
     4     4     5    1
     5     5     6    1
     6     4     7    1
     7     7     8   ar
     8     8     9   ar
     9     9    20    1
    10    20    21   am
    11    21    22    2
    12    21    24    1
    13    24    25   ar
    14    25    26   ar
    15    26    27   ar
    16    27    28    1
    17    27    29   ar
    18    29    30   ar
    19     9    10   ar
    20    10    11   ar
    21    11    12   ar
    22    12    13    1
    23    13    14    1
    24    14    15    1
    25    15    16    1
    26    16    17    1
    27     6     2    1
    28    12     7   ar
    29    17    15    1
    30    15     4    1
    31    30    24   ar
    32     1    18    1
    33     1    19    1
    34    20    23    1
@<TRIPOS>MOLECULE
*****
 30 34 0 0 0
SMALL
GASTEIGER

@<TRIPOS>ATOM
      1 N         143.3396  142.7154  165.1884 N.pl3   1  UNL1       -0.3133
      2 C         142.8212  142.2691  166.5234 C.2     1  UNL1        0.2770
      3 N         141.5849  141.4539  166.7614 N.2     1  UNL1       -0.2204
      4 C         141.4479  141.2406  168.2399 C.3     1  UNL1        0.1537
      5 C         142.5996  141.9240  168.9155 C.3     1  UNL1        0.2350
      6 O         143.4484  142.5596  167.8547 O.2     1  UNL1       -0.4478
      7 C         140.3566  140.6076  167.4284 C.ar    1  UNL1        0.0367
      8 C         140.3616  140.7373  165.9341 C.ar    1  UNL1        0.0153
      9 C         139.2704  140.1043  165.1226 C.ar    1  UNL1        0.0506
     10 C         138.1741  139.3415  165.8055 C.ar    1  UNL1        0.0178
     11 C         138.1691  139.2118  167.2999 C.ar    1  UNL1        0.0379
     12 C         139.2603  139.8448  168.1113 C.ar    1  UNL1        0.1364
     13 O         139.2553  139.7151  169.6058 O.3     1  UNL1       -0.4756
     14 C         140.3465  140.3481  170.4172 C.3     1  UNL1        0.2074
     15 C         141.4428  141.1109  169.7343 C.3     1  UNL1        0.0666
     16 C         142.7057  141.9167  169.8085 C.3     1  UNL1        0.0061
     17 C         142.0699  141.4015  171.0655 C.3     1  UNL1        0.0061
     18 H         142.8550  142.4734  164.3663 H       1  UNL1        0.1466
     19 H         144.1643  143.2503  165.1343 H       1  UNL1        0.1466
     20 N         139.2754  140.2340  163.6282 N.am    1  UNL1       -0.2779
     21 C         138.3658  141.2206  162.9580 C.2     1  UNL1        0.2855
     22 O         137.4511  142.0774  163.7821 O.2     1  UNL1       -0.2664
     23 H         139.8758  139.6716  163.0873 H       1  UNL1        0.1553
     24 C         138.3708  141.3503  161.4636 C.ar    1  UNL1        0.2173
     25 N         138.7978  142.6382  160.8241 N.ar    1  UNL1       -0.2207
     26 C         138.8029  142.7679  159.3296 C.ar    1  UNL1        0.1089
     27 C         138.3809  141.6097  158.4749 C.ar    1  UNL1        0.0729
     28 BR        138.3860  141.7395  156.9805 Br      1  UNL1       -0.0458
     29 C         137.9539  140.3219  159.1145 C.ar    1  UNL1        0.1089
     30 N         137.9489  140.1921  160.6088 N.ar    1  UNL1       -0.2207
@<TRIPOS>BOND
     1     1     2    1
     2     2     3    2
     3     3     4    1
     4     4     5    1
     5     5     6    1
     6     4     7    1
     7     7     8   ar
     8     8     9   ar
     9     9    20    1
    10    20    21   am
    11    21    22    2
    12    21    24    1
    13    24    25   ar
    14    25    26   ar
    15    26    27   ar
    16    27    28    1
    17    27    29   ar
    18    29    30   ar
    19     9    10   ar
    20    10    11   ar
    21    11    12   ar
    22    12    13    1
    23    13    14    1
    24    14    15    1
    25    15    16    1
    26    16    17    1
    27     6     2    1
    28    12     7   ar
    29    17    15    1
    30    15     4    1
    31    30    24   ar
    32     1    18    1
    33     1    19    1
    34    20    23    1
@<TRIPOS>MOLECULE
*****
 30 34 0 0 0
SMALL
GASTEIGER

@<TRIPOS>ATOM
      1 N         137.8076  142.5773  162.6298 N.pl3   1  UNL1       -0.3133
      2 C         138.7097  142.2471  163.7818 C.2     1  UNL1        0.2770
      3 N         140.1263  142.7095  163.9530 N.2     1  UNL1       -0.2204
      4 C         140.6457  142.1446  165.2420 C.3     1  UNL1        0.1537
      5 C         139.5500  141.3331  165.8672 C.3     1  UNL1        0.2350
      6 O         138.3536  141.3964  164.9649 O.2     1  UNL1       -0.4478
      7 C         141.6410  142.9863  164.4997 C.ar    1  UNL1        0.0367
      8 C         141.2625  143.6180  163.1929 C.ar    1  UNL1        0.0153
      9 C         142.2579  144.4597  162.4506 C.ar    1  UNL1        0.0506
     10 C         143.6317  144.6695  163.0151 C.ar    1  UNL1        0.0178
     11 C         144.0101  144.0377  164.3219 C.ar    1  UNL1        0.0379
     12 C         143.0148  143.1961  165.0641 C.ar    1  UNL1        0.1364
     13 O         143.3933  142.5643  166.3709 O.3     1  UNL1       -0.4756
     14 C         142.3979  141.7227  167.1132 C.3     1  UNL1        0.2074
     15 C         141.0241  141.5128  166.5487 C.3     1  UNL1        0.0666
     16 C         139.6563  140.9058  166.6514 C.3     1  UNL1        0.0061
     17 C         140.6680  140.6622  167.7317 C.3     1  UNL1        0.0061
     18 H         138.1343  143.1470  161.8963 H       1  UNL1        0.1466
     19 H         136.8888  142.2244  162.6071 H       1  UNL1        0.1466
     20 N         141.8794  145.0915  161.1439 N.am    1  UNL1       -0.2779
     21 C         141.9051  144.2795  159.8829 C.2     1  UNL1        0.2855
     22 O         142.3093  142.8357  159.9287 O.2     1  UNL1       -0.2664
     23 H         141.6141  146.0391  161.1138 H       1  UNL1        0.1553
     24 C         141.5267  144.9113  158.5762 C.ar    1  UNL1        0.2173
     25 N         142.3967  144.7177  157.3697 N.ar    1  UNL1       -0.2207
     26 C         142.0181  145.3496  156.0629 C.ar    1  UNL1        0.1089
     27 C         140.7696  146.1749  155.9627 C.ar    1  UNL1        0.0729
     28 BR        140.3912  146.8066  154.6560 Br      1  UNL1       -0.0458
     29 C         139.8996  146.3684  157.1692 C.ar    1  UNL1        0.1089
     30 N         140.2781  145.7366  158.4759 N.ar    1  UNL1       -0.2207
@<TRIPOS>BOND
     1     1     2    1
     2     2     3    2
     3     3     4    1
     4     4     5    1
     5     5     6    1
     6     4     7    1
     7     7     8   ar
     8     8     9   ar
     9     9    20    1
    10    20    21   am
    11    21    22    2
    12    21    24    1
    13    24    25   ar
    14    25    26   ar
    15    26    27   ar
    16    27    28    1
    17    27    29   ar
    18    29    30   ar
    19     9    10   ar
    20    10    11   ar
    21    11    12   ar
    22    12    13    1
    23    13    14    1
    24    14    15    1
    25    15    16    1
    26    16    17    1
    27     6     2    1
    28    12     7   ar
    29    17    15    1
    30    15     4    1
    31    30    24   ar
    32     1    18    1
    33     1    19    1
    34    20    23    1
@<TRIPOS>MOLECULE
*****
 30 34 0 0 0
SMALL
GASTEIGER

@<TRIPOS>ATOM
      1 N         138.2050  140.6469  163.3074 N.pl3   1  UNL1       -0.3133
      2 C         138.9129  140.6320  164.6298 C.2     1  UNL1        0.2770
      3 N         140.2413  141.2626  164.9258 N.2     1  UNL1       -0.2204
      4 C         140.5661  141.0042  166.3674 C.3     1  UNL1        0.1537
      5 C         139.4383  140.2140  166.9621 C.3     1  UNL1        0.2350
      6 O         138.4166  139.9840  165.8883 O.2     1  UNL1       -0.4478
      7 C         141.6137  141.7916  165.6376 C.ar    1  UNL1        0.0367
      8 C         141.4257  142.1266  164.1876 C.ar    1  UNL1        0.0153
      9 C         142.4733  142.9141  163.4578 C.ar    1  UNL1        0.0506
     10 C         143.7088  143.3665  164.1780 C.ar    1  UNL1        0.0178
     11 C         143.8968  143.0314  165.6281 C.ar    1  UNL1        0.0379
     12 C         142.8492  142.2440  166.3578 C.ar    1  UNL1        0.1364
     13 O         143.0372  141.9090  167.8078 O.3     1  UNL1       -0.4756
     14 C         141.9896  141.1215  168.5375 C.3     1  UNL1        0.2074
     15 C         140.7541  140.6691  167.8173 C.3     1  UNL1        0.0666
     16 C         139.4359  139.9533  167.8228 C.3     1  UNL1        0.0061
     17 C         140.2578  140.0211  169.0758 C.3     1  UNL1        0.0061
     18 H         138.6137  141.1010  162.5354 H       1  UNL1        0.1466
     19 H         137.3317  140.2027  163.2115 H       1  UNL1        0.1466
     20 N         142.2853  143.2491  162.0079 N.am    1  UNL1       -0.2779
     21 C         141.5857  144.5167  161.6156 C.2     1  UNL1        0.2855
     22 O         141.0742  145.4492  162.6732 O.2     1  UNL1       -0.2664
     23 H         142.6210  142.6370  161.3137 H       1  UNL1        0.1553
     24 C         141.3977  144.8517  160.1656 C.ar    1  UNL1        0.2173
     25 N         142.4598  144.4926  159.1691 N.ar    1  UNL1       -0.2207
     26 C         142.2717  144.8277  157.7190 C.ar    1  UNL1        0.1089
     27 C         141.0217  145.5218  157.2657 C.ar    1  UNL1        0.0729
     28 BR        140.8337  145.8568  155.8157 Br      1  UNL1       -0.0458
     29 C         139.9596  145.8808  158.2622 C.ar    1  UNL1        0.1089
     30 N         140.1476  145.5458  159.7122 N.ar    1  UNL1       -0.2207
@<TRIPOS>BOND
     1     1     2    1
     2     2     3    2
     3     3     4    1
     4     4     5    1
     5     5     6    1
     6     4     7    1
     7     7     8   ar
     8     8     9   ar
     9     9    20    1
    10    20    21   am
    11    21    22    2
    12    21    24    1
    13    24    25   ar
    14    25    26   ar
    15    26    27   ar
    16    27    28    1
    17    27    29   ar
    18    29    30   ar
    19     9    10   ar
    20    10    11   ar
    21    11    12   ar
    22    12    13    1
    23    13    14    1
    24    14    15    1
    25    15    16    1
    26    16    17    1
    27     6     2    1
    28    12     7   ar
    29    17    15    1
    30    15     4    1
    31    30    24   ar
    32     1    18    1
    33     1    19    1
    34    20    23    1
@<TRIPOS>MOLECULE
*****
 30 34 0 0 0
SMALL
GASTEIGER

@<TRIPOS>ATOM
      1 N         138.1562  138.9157  166.2511 N.pl3   1  UNL1       -0.3133
      2 C         139.0327  139.5958  167.2607 C.2     1  UNL1        0.2770
      3 N         140.2617  140.4017  166.9607 N.2     1  UNL1       -0.2204
      4 C         140.8226  140.8934  168.2622 C.3     1  UNL1        0.1537
      5 C         139.9402  140.3914  169.3664 C.3     1  UNL1        0.2350
      6 O         138.8341  139.5895  168.7475 O.2     1  UNL1       -0.4478
      7 C         141.6086  141.3216  167.0584 C.ar    1  UNL1        0.0367
      8 C         141.1668  140.9045  165.6870 C.ar    1  UNL1        0.0153
      9 C         141.9527  141.3327  164.4832 C.ar    1  UNL1        0.0506
     10 C         143.1804  142.1780  164.6509 C.ar    1  UNL1        0.0178
     11 C         143.6222  142.5951  166.0224 C.ar    1  UNL1        0.0379
     12 C         142.8363  142.1669  167.2261 C.ar    1  UNL1        0.1364
     13 O         143.2781  142.5841  168.5976 O.3     1  UNL1       -0.4756
     14 C         142.4922  142.1559  169.8013 C.3     1  UNL1        0.2074
     15 C         141.2644  141.3106  169.6336 C.3     1  UNL1        0.0666
     16 C         140.1019  140.5753  170.2317 C.3     1  UNL1        0.0061
     17 C         141.0657  141.3042  171.1203 C.3     1  UNL1        0.0061
     18 H         138.3701  138.9778  165.2922 H       1  UNL1        0.1466
     19 H         137.3671  138.4071  166.5475 H       1  UNL1        0.1466
     20 N         141.5109  140.9156  163.1118 N.am    1  UNL1       -0.2779
     21 C         141.9041  139.5718  162.5735 C.2     1  UNL1        0.2855
     22 O         142.7392  138.6452  163.4066 O.2     1  UNL1       -0.2664
     23 H         140.9628  141.5237  162.5650 H       1  UNL1        0.1553
     24 C         141.4623  139.1547  161.2021 C.ar    1  UNL1        0.2173
     25 N         142.4803  138.7558  160.1752 N.ar    1  UNL1       -0.2207
     26 C         142.0384  138.3387  158.8037 C.ar    1  UNL1        0.1089
     27 C         140.5787  138.3204  158.4593 C.ar    1  UNL1        0.0729
     28 BR        140.1369  137.9033  157.0879 Br      1  UNL1       -0.0458
     29 C         139.5607  138.7193  159.4862 C.ar    1  UNL1        0.1089
     30 N         140.0025  139.1364  160.8576 N.ar    1  UNL1       -0.2207
@<TRIPOS>BOND
     1     1     2    1
     2     2     3    2
     3     3     4    1
     4     4     5    1
     5     5     6    1
     6     4     7    1
     7     7     8   ar
     8     8     9   ar
     9     9    20    1
    10    20    21   am
    11    21    22    2
    12    21    24    1
    13    24    25   ar
    14    25    26   ar
    15    26    27   ar
    16    27    28    1
    17    27    29   ar
    18    29    30   ar
    19     9    10   ar
    20    10    11   ar
    21    11    12   ar
    22    12    13    1
    23    13    14    1
    24    14    15    1
    25    15    16    1
    26    16    17    1
    27     6     2    1
    28    12     7   ar
    29    17    15    1
    30    15     4    1
    31    30    24   ar
    32     1    18    1
    33     1    19    1
    34    20    23    1
@<TRIPOS>MOLECULE
*****
 30 34 0 0 0
SMALL
GASTEIGER

@<TRIPOS>ATOM
      1 N         138.1241  139.0963  166.4093 N.pl3   1  UNL1       -0.3133
      2 C         139.1225  139.6931  167.3566 C.2     1  UNL1        0.2770
      3 N         140.3168  140.5164  166.9752 N.2     1  UNL1       -0.2204
      4 C         141.0341  140.9035  168.2345 C.3     1  UNL1        0.1537
      5 C         140.2830  140.3194  169.3940 C.3     1  UNL1        0.2350
      6 O         139.1015  139.5713  168.8515 O.2     1  UNL1       -0.4478
      7 C         141.6768  141.4221  166.9822 C.ar    1  UNL1        0.0367
      8 C         141.0704  141.1145  165.6452 C.ar    1  UNL1        0.0153
      9 C         141.7130  141.6330  164.3929 C.ar    1  UNL1        0.0506
     10 C         142.9622  142.4592  164.4777 C.ar    1  UNL1        0.0178
     11 C         143.5686  142.7668  165.8148 C.ar    1  UNL1        0.0379
     12 C         142.9259  142.2482  167.0670 C.ar    1  UNL1        0.1364
     13 O         143.5324  142.5558  168.4041 O.3     1  UNL1       -0.4756
     14 C         142.8897  142.0373  169.6563 C.3     1  UNL1        0.2074
     15 C         141.6406  141.2111  169.5715 C.3     1  UNL1        0.0666
     16 C         140.5484  140.4348  170.2455 C.3     1  UNL1        0.0061
     17 C         141.6197  141.0893  171.0664 C.3     1  UNL1        0.0061
     18 H         138.2235  139.2325  165.4393 H       1  UNL1        0.1466
     19 H         137.3696  138.5685  166.7575 H       1  UNL1        0.1466
     20 N         141.1066  141.3254  163.0560 N.am    1  UNL1       -0.2779
     21 C         140.0321  142.2110  162.4982 C.2     1  UNL1        0.2855
     22 O         139.5640  143.4042  163.2773 O.2     1  UNL1       -0.2664
     23 H         141.4138  140.5423  162.5445 H       1  UNL1        0.1553
     24 C         139.4256  141.9034  161.1612 C.ar    1  UNL1        0.2173
     25 N         139.0534  143.0203  160.2316 N.ar    1  UNL1       -0.2207
     26 C         138.4470  142.7126  158.8946 C.ar    1  UNL1        0.1089
     27 C         138.2127  141.2881  158.4872 C.ar    1  UNL1        0.0729
     28 BR        137.6063  140.9805  157.1502 Br      1  UNL1       -0.0458
     29 C         138.5849  140.1713  159.4167 C.ar    1  UNL1        0.1089
     30 N         139.1913  140.4789  160.7537 N.ar    1  UNL1       -0.2207
@<TRIPOS>BOND
     1     1     2    1
     2     2     3    2
     3     3     4    1
     4     4     5    1
     5     5     6    1
     6     4     7    1
     7     7     8   ar
     8     8     9   ar
     9     9    20    1
    10    20    21   am
    11    21    22    2
    12    21    24    1
    13    24    25   ar
    14    25    26   ar
    15    26    27   ar
    16    27    28    1
    17    27    29   ar
    18    29    30   ar
    19     9    10   ar
    20    10    11   ar
    21    11    12   ar
    22    12    13    1
    23    13    14    1
    24    14    15    1
    25    15    16    1
    26    16    17    1
    27     6     2    1
    28    12     7   ar
    29    17    15    1
    30    15     4    1
    31    30    24   ar
    32     1    18    1
    33     1    19    1
    34    20    23    1
@<TRIPOS>MOLECULE
*****
 30 34 0 0 0
SMALL
GASTEIGER

@<TRIPOS>ATOM
      1 N         145.0135  143.0628  161.9404 N.pl3   1  UNL1       -0.3133
      2 C         144.2029  142.9031  163.1924 C.2     1  UNL1        0.2770
      3 N         142.8063  143.4056  163.4086 N.2     1  UNL1       -0.2204
      4 C         142.3869  143.0258  164.7978 C.3     1  UNL1        0.1537
      5 C         143.5244  142.2886  165.4402 C.3     1  UNL1        0.2350
      6 O         144.6467  142.2127  164.4480 O.2     1  UNL1       -0.4478
      7 C         141.3403  143.7757  164.0281 C.ar    1  UNL1        0.0367
      8 C         141.6182  144.2215  162.6231 C.ar    1  UNL1        0.0153
      9 C         140.5716  144.9714  161.8534 C.ar    1  UNL1        0.0506
     10 C         139.2473  145.2755  162.4887 C.ar    1  UNL1        0.0178
     11 C         138.9695  144.8296  163.8937 C.ar    1  UNL1        0.0379
     12 C         140.0160  144.0798  164.6634 C.ar    1  UNL1        0.1364
     13 O         139.7382  143.6339  166.0685 O.3     1  UNL1       -0.4756
     14 C         140.7847  142.8841  166.8381 C.3     1  UNL1        0.2074
     15 C         142.1091  142.5800  166.2028 C.3     1  UNL1        0.0666
     16 C         143.4779  141.9715  166.2804 C.3     1  UNL1        0.0061
     17 C         142.5529  141.8897  167.4584 C.3     1  UNL1        0.0061
     18 H         144.6330  143.5343  161.1644 H       1  UNL1        0.1466
     19 H         145.9261  142.6962  161.8947 H       1  UNL1        0.1466
     20 N         140.8494  145.4172  160.4484 N.am    1  UNL1       -0.2779
     21 C         140.1868  144.7221  159.2961 C.2     1  UNL1        0.2855
     22 O         139.2463  143.5813  159.5488 O.2     1  UNL1       -0.2664
     23 H         141.4667  146.1660  160.2825 H       1  UNL1        0.1553
     24 C         140.4646  145.1679  157.8911 C.ar    1  UNL1        0.2173
     25 N         139.8006  146.3992  157.3497 N.ar    1  UNL1       -0.2207
     26 C         140.0785  146.8450  155.9447 C.ar    1  UNL1        0.1089
     27 C         141.0203  146.0595  155.0810 C.ar    1  UNL1        0.0729
     28 BR        141.2982  146.5053  153.6761 Br      1  UNL1       -0.0458
     29 C         141.6843  144.8282  155.6224 C.ar    1  UNL1        0.1089
     30 N         141.4065  144.3824  157.0274 N.ar    1  UNL1       -0.2207
@<TRIPOS>BOND
     1     1     2    1
     2     2     3    2
     3     3     4    1
     4     4     5    1
     5     5     6    1
     6     4     7    1
     7     7     8   ar
     8     8     9   ar
     9     9    20    1
    10    20    21   am
    11    21    22    2
    12    21    24    1
    13    24    25   ar
    14    25    26   ar
    15    26    27   ar
    16    27    28    1
    17    27    29   ar
    18    29    30   ar
    19     9    10   ar
    20    10    11   ar
    21    11    12   ar
    22    12    13    1
    23    13    14    1
    24    14    15    1
    25    15    16    1
    26    16    17    1
    27     6     2    1
    28    12     7   ar
    29    17    15    1
    30    15     4    1
    31    30    24   ar
    32     1    18    1
    33     1    19    1
    34    20    23    1
@<TRIPOS>MOLECULE
*****
 30 34 0 0 0
SMALL
GASTEIGER

@<TRIPOS>ATOM
      1 N         137.8402  140.1746  160.3241 N.pl3   1  UNL1       -0.3133
      2 C         138.1911  140.2570  161.7802 C.2     1  UNL1        0.2770
      3 N         138.8284  141.4274  162.4685 N.2     1  UNL1       -0.2204
      4 C         138.9975  141.0772  163.9173 C.3     1  UNL1        0.1537
      5 C         138.4648  139.6903  164.1242 C.3     1  UNL1        0.2350
      6 O         137.9664  139.1834  162.8034 O.2     1  UNL1       -0.4478
      7 C         139.4906  142.4479  163.5593 C.ar    1  UNL1        0.0367
      8 C         139.3867  142.9367  162.1450 C.ar    1  UNL1        0.0153
      9 C         139.8799  144.3073  161.7870 C.ar    1  UNL1        0.0506
     10 C         140.4769  145.1892  162.8434 C.ar    1  UNL1        0.0178
     11 C         140.5808  144.7003  164.2578 C.ar    1  UNL1        0.0379
     12 C         140.0877  143.3297  164.6157 C.ar    1  UNL1        0.1364
     13 O         140.1916  142.8408  166.0300 O.3     1  UNL1       -0.4756
     14 C         139.6985  141.4702  166.3879 C.3     1  UNL1        0.2074
     15 C         139.1014  140.5884  165.3316 C.3     1  UNL1        0.0666
     16 C         138.4720  139.2879  164.9284 C.3     1  UNL1        0.0061
     17 C         138.8767  139.5148  166.3548 C.3     1  UNL1        0.0061
     18 H         138.0278  140.9358  159.7286 H       1  UNL1        0.1466
     19 H         137.4222  139.3592  159.9638 H       1  UNL1        0.1466
     20 N         139.7760  144.7961  160.3728 N.am    1  UNL1       -0.2779
     21 C         141.0089  144.9097  159.5260 C.2     1  UNL1        0.2855
     22 O         142.3457  144.5345  160.0935 O.2     1  UNL1       -0.2664
     23 H         138.8986  145.0424  160.0003 H       1  UNL1        0.1553
     24 C         140.9050  145.3985  158.1117 C.ar    1  UNL1        0.2173
     25 N         139.8365  146.3813  157.7344 N.ar    1  UNL1       -0.2207
     26 C         139.7326  146.8701  156.3200 C.ar    1  UNL1        0.1089
     27 C         140.6972  146.3760  155.2830 C.ar    1  UNL1        0.0729
     28 BR        140.5933  146.8648  153.8688 Br      1  UNL1       -0.0458
     29 C         141.7657  145.3932  155.6603 C.ar    1  UNL1        0.1089
     30 N         141.8696  144.9044  157.0746 N.ar    1  UNL1       -0.2207
@<TRIPOS>BOND
     1     1     2    1
     2     2     3    2
     3     3     4    1
     4     4     5    1
     5     5     6    1
     6     4     7    1
     7     7     8   ar
     8     8     9   ar
     9     9    20    1
    10    20    21   am
    11    21    22    2
    12    21    24    1
    13    24    25   ar
    14    25    26   ar
    15    26    27   ar
    16    27    28    1
    17    27    29   ar
    18    29    30   ar
    19     9    10   ar
    20    10    11   ar
    21    11    12   ar
    22    12    13    1
    23    13    14    1
    24    14    15    1
    25    15    16    1
    26    16    17    1
    27     6     2    1
    28    12     7   ar
    29    17    15    1
    30    15     4    1
    31    30    24   ar
    32     1    18    1
    33     1    19    1
    34    20    23    1
@<TRIPOS>MOLECULE
*****
 30 34 0 0 0
SMALL
GASTEIGER

@<TRIPOS>ATOM
      1 N         137.1342  139.6983  161.3728 N.pl3   1  UNL1       -0.3133
      2 C         137.7044  140.8258  162.1814 C.2     1  UNL1        0.2770
      3 N         139.1552  141.1932  162.2816 N.2     1  UNL1       -0.2204
      4 C         139.2713  142.3783  163.1939 C.3     1  UNL1        0.1537
      5 C         137.8922  142.7431  163.6575 C.3     1  UNL1        0.2350
      6 O         136.9239  141.7837  163.0318 O.2     1  UNL1       -0.4478
      7 C         140.5833  141.8975  162.6482 C.ar    1  UNL1        0.0367
      8 C         140.6233  140.7191  161.7210 C.ar    1  UNL1        0.0153
      9 C         141.9353  140.2383  161.1753 C.ar    1  UNL1        0.0506
     10 C         143.2071  140.9359  161.5570 C.ar    1  UNL1        0.0178
     11 C         143.1671  142.1143  162.4842 C.ar    1  UNL1        0.0379
     12 C         141.8552  142.5951  163.0298 C.ar    1  UNL1        0.1364
     13 O         141.8151  143.7735  163.9571 O.3     1  UNL1       -0.4756
     14 C         140.5032  144.2543  164.5027 C.3     1  UNL1        0.2074
     15 C         139.2313  143.5566  164.1211 C.3     1  UNL1        0.0666
     16 C         137.7395  143.4314  164.2158 C.3     1  UNL1        0.0061
     17 C         138.4507  144.5145  164.9715 C.3     1  UNL1        0.0061
     18 H         137.7310  139.1209  160.8440 H       1  UNL1        0.1466
     19 H         136.1632  139.5357  161.3710 H       1  UNL1        0.1466
     20 N         141.9753  139.0599  160.2481 N.am    1  UNL1       -0.2779
     21 C         141.7294  139.2514  158.7808 C.2     1  UNL1        0.2855
     22 O         141.4435  140.6213  158.2408 O.2     1  UNL1       -0.2664
     23 H         142.1629  138.1608  160.6026 H       1  UNL1        0.1553
     24 C         141.7695  138.0730  157.8536 C.ar    1  UNL1        0.2173
     25 N         140.6346  137.8269  156.9042 N.ar    1  UNL1       -0.2207
     26 C         140.6747  136.6484  155.9769 C.ar    1  UNL1        0.1089
     27 C         141.8496  135.7162  155.9991 C.ar    1  UNL1        0.0729
     28 BR        141.8896  134.5378  155.0719 Br      1  UNL1       -0.0458
     29 C         142.9845  135.9624  156.9486 C.ar    1  UNL1        0.1089
     30 N         142.9444  137.1408  157.8758 N.ar    1  UNL1       -0.2207
@<TRIPOS>BOND
     1     1     2    1
     2     2     3    2
     3     3     4    1
     4     4     5    1
     5     5     6    1
     6     4     7    1
     7     7     8   ar
     8     8     9   ar
     9     9    20    1
    10    20    21   am
    11    21    22    2
    12    21    24    1
    13    24    25   ar
    14    25    26   ar
    15    26    27   ar
    16    27    28    1
    17    27    29   ar
    18    29    30   ar
    19     9    10   ar
    20    10    11   ar
    21    11    12   ar
    22    12    13    1
    23    13    14    1
    24    14    15    1
    25    15    16    1
    26    16    17    1
    27     6     2    1
    28    12     7   ar
    29    17    15    1
    30    15     4    1
    31    30    24   ar
    32     1    18    1
    33     1    19    1
    34    20    23    1
