@<TRIPOS>MOLECULE
*****
 29 31 0 0 0
SMALL
GASTEIGER

@<TRIPOS>ATOM
      1 C         139.3161  142.3838  163.5464 C.2     1  UNL1        0.2495
      2 O         138.0130  142.4827  162.8103 O.2     1  UNL1       -0.2698
      3 N         140.5613  142.9688  162.9487 N.am    1  UNL1       -0.2804
      4 H         141.4167  142.9039  163.4319 H       1  UNL1        0.1552
      5 C         139.4902  140.3322  167.5478 C.ar    1  UNL1        0.1387
      6 C         138.6038  139.7911  166.4654 C.ar    1  UNL1        0.0370
      7 C         138.5458  140.4750  165.1316 C.ar    1  UNL1        0.0076
      8 C         139.3742  141.6999  164.8802 C.ar    1  UNL1        0.0539
      9 C         140.2605  142.2410  165.9626 C.ar    1  UNL1        0.0076
     10 C         140.3185  141.5572  167.2963 C.ar    1  UNL1        0.0371
     11 C         141.2049  142.0984  168.3787 C.ar    1  UNL1        0.0413
     12 C         140.6884  143.1501  169.3153 C.ar    1  UNL1        0.1023
     13 N         141.5747  143.6912  170.3976 N.ar    1  UNL1       -0.2224
     14 C         142.9777  143.1807  170.5435 C.ar    1  UNL1        0.1989
     15 N         143.4942  142.1290  169.6069 N.ar    1  UNL1       -0.2224
     16 C         142.6078  141.5878  168.5245 C.ar    1  UNL1        0.1023
     17 C         138.6618  140.1098  170.0002 C.3     1  UNL1        0.2525
     18 O         139.5482  139.6484  168.8816 O.3     1  UNL1       -0.4714
     19 C         140.5033  143.6527  161.6150 C.ar    1  UNL1        0.0507
     20 C         140.6424  142.8513  160.3546 C.ar    1  UNL1        0.0178
     21 C         140.5844  143.5351  159.0208 C.ar    1  UNL1        0.0385
     22 C         140.3873  145.0204  158.9474 C.ar    1  UNL1        0.1469
     23 C         140.2482  145.8217  160.2078 C.ar    1  UNL1        0.0385
     24 C         140.3062  145.1378  161.5415 C.ar    1  UNL1        0.0178
     25 O         140.3293  145.7042  157.6136 O.3     1  UNL1       -0.4045
     26 C         141.4797  145.5842  156.6586 C.3     1  UNL1        0.5753
     27 F         142.6301  145.4641  155.7035 F       1  UNL1       -0.1328
     28 F         140.5875  144.8927  155.6708 F       1  UNL1       -0.1328
     29 F         142.3720  146.2756  157.6464 F       1  UNL1       -0.1328
@<TRIPOS>BOND
     1    17    18    1
     2    18     5    1
     3     5     6   ar
     4     6     7   ar
     5     7     8   ar
     6     8     1    1
     7     1     2    2
     8     1     3   am
     9     3    19    1
    10    19    20   ar
    11    20    21   ar
    12    21    22   ar
    13    22    25    1
    14    25    26    1
    15    26    27    1
    16    26    28    1
    17    26    29    1
    18    22    23   ar
    19    23    24   ar
    20     8     9   ar
    21     9    10   ar
    22    10    11    1
    23    11    12   ar
    24    12    13   ar
    25    13    14   ar
    26    14    15   ar
    27    15    16   ar
    28    10     5   ar
    29    16    11   ar
    30    24    19   ar
    31     3     4    1
@<TRIPOS>MOLECULE
*****
 29 31 0 0 0
SMALL
GASTEIGER

@<TRIPOS>ATOM
      1 C         139.3079  140.5535  163.7993 C.2     1  UNL1        0.2495
      2 O         140.6133  140.3953  163.0778 O.2     1  UNL1       -0.2698
      3 N         138.0722  140.9346  163.0392 N.am    1  UNL1       -0.2804
      4 H         137.2154  141.0384  163.5128 H       1  UNL1        0.1552
      5 C         139.0984  139.8846  168.2444 C.ar    1  UNL1        0.1387
      6 C         138.1771  139.1343  167.3288 C.ar    1  UNL1        0.0370
      7 C         138.2469  139.3573  165.8471 C.ar    1  UNL1        0.0076
      8 C         139.2380  140.3305  165.2810 C.ar    1  UNL1        0.0539
      9 C         140.1593  141.0807  166.1966 C.ar    1  UNL1        0.0076
     10 C         140.0895  140.8578  167.6783 C.ar    1  UNL1        0.0371
     11 C         141.0108  141.6081  168.5939 C.ar    1  UNL1        0.0413
     12 C         140.5197  142.8260  169.3188 C.ar    1  UNL1        0.1023
     13 N         141.4409  143.5763  170.2344 N.ar    1  UNL1       -0.2224
     14 C         142.8534  143.1087  170.4250 C.ar    1  UNL1        0.1989
     15 N         143.3446  141.8908  169.7001 N.ar    1  UNL1       -0.2224
     16 C         142.4233  141.1405  168.7845 C.ar    1  UNL1        0.1023
     17 C         137.7026  139.6876  170.4268 C.3     1  UNL1        0.2525
     18 O         139.0286  139.6616  169.7261 O.3     1  UNL1       -0.4714
     19 C         138.1421  141.1576  161.5575 C.ar    1  UNL1        0.0507
     20 C         137.8427  140.0301  160.6145 C.ar    1  UNL1        0.0178
     21 C         137.9125  140.2531  159.1328 C.ar    1  UNL1        0.0385
     22 C         138.2817  141.6035  158.5941 C.ar    1  UNL1        0.1469
     23 C         138.5810  142.7309  159.5371 C.ar    1  UNL1        0.0385
     24 C         138.5112  142.5079  161.0188 C.ar    1  UNL1        0.0178
     25 O         138.3515  141.8265  157.1124 O.3     1  UNL1       -0.4045
     26 C         137.4120  142.7931  156.4543 C.3     1  UNL1        0.5753
     27 F         136.4726  143.7597  155.7963 F       1  UNL1       -0.1328
     28 F         136.3100  141.7791  156.5383 F       1  UNL1       -0.1328
     29 F         138.5141  143.8072  156.3704 F       1  UNL1       -0.1328
@<TRIPOS>BOND
     1    17    18    1
     2    18     5    1
     3     5     6   ar
     4     6     7   ar
     5     7     8   ar
     6     8     1    1
     7     1     2    2
     8     1     3   am
     9     3    19    1
    10    19    20   ar
    11    20    21   ar
    12    21    22   ar
    13    22    25    1
    14    25    26    1
    15    26    27    1
    16    26    28    1
    17    26    29    1
    18    22    23   ar
    19    23    24   ar
    20     8     9   ar
    21     9    10   ar
    22    10    11    1
    23    11    12   ar
    24    12    13   ar
    25    13    14   ar
    26    14    15   ar
    27    15    16   ar
    28    10     5   ar
    29    16    11   ar
    30    24    19   ar
    31     3     4    1
@<TRIPOS>MOLECULE
*****
 29 31 0 0 0
SMALL
GASTEIGER

@<TRIPOS>ATOM
      1 C         140.4129  142.3093  163.6489 C.2     1  UNL1        0.2495
      2 O         141.5514  143.2271  163.9825 O.2     1  UNL1       -0.2698
      3 N         139.8508  142.2864  162.2584 N.am    1  UNL1       -0.2804
      4 H         139.1035  141.6840  162.0394 H       1  UNL1        0.1552
      5 C         138.6834  139.6249  166.8195 C.ar    1  UNL1        0.1387
      6 C         138.1371  139.5848  165.4231 C.ar    1  UNL1        0.0370
      7 C         138.7136  140.4796  164.3662 C.ar    1  UNL1        0.0076
      8 C         139.8364  141.4145  164.7058 C.ar    1  UNL1        0.0539
      9 C         140.3826  141.4546  166.1021 C.ar    1  UNL1        0.0076
     10 C         139.8061  140.5598  167.1590 C.ar    1  UNL1        0.0371
     11 C         140.3525  140.5999  168.5555 C.ar    1  UNL1        0.0413
     12 C         141.6411  139.9027  168.8769 C.ar    1  UNL1        0.1023
     13 N         142.1874  139.9428  170.2733 N.ar    1  UNL1       -0.2224
     14 C         141.4451  140.6801  171.3483 C.ar    1  UNL1        0.1989
     15 N         140.1565  141.3773  171.0268 N.ar    1  UNL1       -0.2224
     16 C         139.6102  141.3372  169.6303 C.ar    1  UNL1        0.1023
     17 C         137.0327  137.7453  167.5211 C.3     1  UNL1        0.2525
     18 O         138.1069  138.7301  167.8763 O.3     1  UNL1       -0.4714
     19 C         140.4273  143.1812  161.2015 C.ar    1  UNL1        0.0507
     20 C         141.5103  142.6723  160.2970 C.ar    1  UNL1        0.0178
     21 C         142.0868  143.5671  159.2401 C.ar    1  UNL1        0.0385
     22 C         141.5803  144.9708  159.0878 C.ar    1  UNL1        0.1469
     23 C         140.4973  145.4797  159.9924 C.ar    1  UNL1        0.0385
     24 C         139.9208  144.5848  161.0492 C.ar    1  UNL1        0.0178
     25 O         142.1568  145.8657  158.0309 O.3     1  UNL1       -0.4045
     26 C         141.6117  145.8241  156.6340 C.3     1  UNL1        0.5753
     27 F         141.0668  145.7826  155.2372 F       1  UNL1       -0.1328
     28 F         142.7488  144.9394  156.2167 F       1  UNL1       -0.1328
     29 F         140.4747  146.7089  157.0513 F       1  UNL1       -0.1328
@<TRIPOS>BOND
     1    17    18    1
     2    18     5    1
     3     5     6   ar
     4     6     7   ar
     5     7     8   ar
     6     8     1    1
     7     1     2    2
     8     1     3   am
     9     3    19    1
    10    19    20   ar
    11    20    21   ar
    12    21    22   ar
    13    22    25    1
    14    25    26    1
    15    26    27    1
    16    26    28    1
    17    26    29    1
    18    22    23   ar
    19    23    24   ar
    20     8     9   ar
    21     9    10   ar
    22    10    11    1
    23    11    12   ar
    24    12    13   ar
    25    13    14   ar
    26    14    15   ar
    27    15    16   ar
    28    10     5   ar
    29    16    11   ar
    30    24    19   ar
    31     3     4    1
@<TRIPOS>MOLECULE
*****
 29 31 0 0 0
SMALL
GASTEIGER

@<TRIPOS>ATOM
      1 C         138.3956  141.0598  162.5464 C.2     1  UNL1        0.2495
      2 O         137.1657  141.5607  163.2438 O.2     1  UNL1       -0.2698
      3 N         139.4742  140.3720  163.3297 N.am    1  UNL1       -0.2804
      4 H         140.2815  140.0432  162.8719 H       1  UNL1        0.1552
      5 C         138.8495  141.6206  158.1047 C.ar    1  UNL1        0.1387
      6 C         137.9914  140.5114  158.6367 C.ar    1  UNL1        0.0370
      7 C         137.8401  140.3245  160.1173 C.ar    1  UNL1        0.0076
      8 C         138.5469  141.2467  161.0659 C.ar    1  UNL1        0.0539
      9 C         139.4051  142.3559  160.5338 C.ar    1  UNL1        0.0076
     10 C         139.5564  142.5429  159.0532 C.ar    1  UNL1        0.0371
     11 C         140.4146  143.6522  158.5211 C.ar    1  UNL1        0.0413
     12 C         139.7808  144.8360  157.8526 C.ar    1  UNL1        0.1023
     13 N         140.6390  145.9453  157.3206 N.ar    1  UNL1       -0.2224
     14 C         142.1309  145.8707  157.4570 C.ar    1  UNL1        0.1989
     15 N         142.7647  144.6869  158.1255 N.ar    1  UNL1       -0.2224
     16 C         141.9065  143.5776  158.6576 C.ar    1  UNL1        0.1023
     17 C         137.8355  142.2765  155.8044 C.3     1  UNL1        0.2525
     18 O         139.0009  141.8076  156.6241 O.3     1  UNL1       -0.4714
     19 C         139.3229  140.1850  164.8103 C.ar    1  UNL1        0.0507
     20 C         138.4289  139.1044  165.3423 C.ar    1  UNL1        0.0178
     21 C         138.2775  138.9174  166.8229 C.ar    1  UNL1        0.0385
     22 C         139.0203  139.8111  167.7714 C.ar    1  UNL1        0.1469
     23 C         139.9143  140.8917  167.2394 C.ar    1  UNL1        0.0385
     24 C         140.0656  141.0786  165.7588 C.ar    1  UNL1        0.0178
     25 O         138.8690  139.6242  169.2520 O.3     1  UNL1       -0.4045
     26 C         139.7424  140.3935  170.1983 C.3     1  UNL1        0.5753
     27 F         140.6158  141.1629  171.1444 F       1  UNL1       -0.1328
     28 F         138.6891  141.4560  170.3066 F       1  UNL1       -0.1328
     29 F         140.7957  139.3311  170.0899 F       1  UNL1       -0.1328
@<TRIPOS>BOND
     1    17    18    1
     2    18     5    1
     3     5     6   ar
     4     6     7   ar
     5     7     8   ar
     6     8     1    1
     7     1     2    2
     8     1     3   am
     9     3    19    1
    10    19    20   ar
    11    20    21   ar
    12    21    22   ar
    13    22    25    1
    14    25    26    1
    15    26    27    1
    16    26    28    1
    17    26    29    1
    18    22    23   ar
    19    23    24   ar
    20     8     9   ar
    21     9    10   ar
    22    10    11    1
    23    11    12   ar
    24    12    13   ar
    25    13    14   ar
    26    14    15   ar
    27    15    16   ar
    28    10     5   ar
    29    16    11   ar
    30    24    19   ar
    31     3     4    1
@<TRIPOS>MOLECULE
*****
 29 31 0 0 0
SMALL
GASTEIGER

@<TRIPOS>ATOM
      1 C         141.0388  138.4856  162.4627 C.2     1  UNL1        0.2495
      2 O         140.5895  137.2658  163.2110 O.2     1  UNL1       -0.2698
      3 N         141.8046  139.5618  163.1735 N.am    1  UNL1       -0.2804
      4 H         142.0995  140.3625  162.6824 H       1  UNL1        0.1552
      5 C         140.0894  138.9167  158.0851 C.ar    1  UNL1        0.1387
      6 C         139.0702  139.3040  159.1153 C.ar    1  UNL1        0.0370
      7 C         139.3867  139.1603  160.5745 C.ar    1  UNL1        0.0076
      8 C         140.7223  138.6293  161.0035 C.ar    1  UNL1        0.0539
      9 C         141.7415  138.2421  159.9733 C.ar    1  UNL1        0.0076
     10 C         141.4251  138.3858  158.5142 C.ar    1  UNL1        0.0371
     11 C         142.4443  137.9985  157.4840 C.ar    1  UNL1        0.0413
     12 C         142.5957  136.5614  157.0820 C.ar    1  UNL1        0.1023
     13 N         143.6149  136.1741  156.0519 N.ar    1  UNL1       -0.2224
     14 C         144.4828  137.2240  155.4237 C.ar    1  UNL1        0.1989
     15 N         144.3314  138.6612  155.8257 N.ar    1  UNL1       -0.2224
     16 C         143.3122  139.0484  156.8559 C.ar    1  UNL1        0.1023
     17 C         138.9232  140.2019  156.1517 C.3     1  UNL1        0.2525
     18 O         139.7730  139.0604  156.6260 O.3     1  UNL1       -0.4714
     19 C         142.1211  139.4181  164.6327 C.ar    1  UNL1        0.0507
     20 C         143.3210  138.6289  165.0657 C.ar    1  UNL1        0.0178
     21 C         143.6375  138.4852  166.5249 C.ar    1  UNL1        0.0385
     22 C         142.7540  139.1307  167.5511 C.ar    1  UNL1        0.1469
     23 C         141.5541  139.9198  167.1180 C.ar    1  UNL1        0.0385
     24 C         141.2377  140.0635  165.6589 C.ar    1  UNL1        0.0178
     25 O         143.0705  138.9870  169.0103 O.3     1  UNL1       -0.4045
     26 C         142.4773  139.9415  170.0039 C.3     1  UNL1        0.5753
     27 F         141.8842  140.8959  170.9974 F       1  UNL1       -0.1328
     28 F         141.4040  138.9432  170.3221 F       1  UNL1       -0.1328
     29 F         143.5507  140.9398  169.6857 F       1  UNL1       -0.1328
@<TRIPOS>BOND
     1    17    18    1
     2    18     5    1
     3     5     6   ar
     4     6     7   ar
     5     7     8   ar
     6     8     1    1
     7     1     2    2
     8     1     3   am
     9     3    19    1
    10    19    20   ar
    11    20    21   ar
    12    21    22   ar
    13    22    25    1
    14    25    26    1
    15    26    27    1
    16    26    28    1
    17    26    29    1
    18    22    23   ar
    19    23    24   ar
    20     8     9   ar
    21     9    10   ar
    22    10    11    1
    23    11    12   ar
    24    12    13   ar
    25    13    14   ar
    26    14    15   ar
    27    15    16   ar
    28    10     5   ar
    29    16    11   ar
    30    24    19   ar
    31     3     4    1
@<TRIPOS>MOLECULE
*****
 29 31 0 0 0
SMALL
GASTEIGER

@<TRIPOS>ATOM
      1 C         138.9210  141.1059  162.6604 C.2     1  UNL1        0.2495
      2 O         137.9589  142.0208  163.3584 O.2     1  UNL1       -0.2698
      3 N         139.6951  140.0902  163.4472 N.am    1  UNL1       -0.2804
      4 H         140.3266  139.4897  162.9891 H       1  UNL1        0.1552
      5 C         139.4847  141.4080  158.2061 C.ar    1  UNL1        0.1387
      6 C         138.6819  142.4460  158.9325 C.ar    1  UNL1        0.0370
      7 C         138.4939  142.3453  160.4173 C.ar    1  UNL1        0.0076
      8 C         139.1089  141.2066  161.1756 C.ar    1  UNL1        0.0539
      9 C         139.9117  140.1685  160.4491 C.ar    1  UNL1        0.0076
     10 C         140.0997  140.2692  158.9644 C.ar    1  UNL1        0.0371
     11 C         140.9026  139.2311  158.2379 C.ar    1  UNL1        0.0413
     12 C         140.2077  138.1115  157.5212 C.ar    1  UNL1        0.1023
     13 N         141.0105  137.0734  156.7948 N.ar    1  UNL1       -0.2224
     14 C         142.5083  137.1548  156.7850 C.ar    1  UNL1        0.1989
     15 N         143.2032  138.2745  157.5016 N.ar    1  UNL1       -0.2224
     16 C         142.4003  139.3126  158.2281 C.ar    1  UNL1        0.1023
     17 C         138.5681  141.0927  155.7956 C.3     1  UNL1        0.2525
     18 O         139.6726  141.5087  156.7213 O.3     1  UNL1       -0.4714
     19 C         139.5072  139.9896  164.9319 C.ar    1  UNL1        0.0507
     20 C         140.3933  140.7727  165.8549 C.ar    1  UNL1        0.0178
     21 C         140.2053  140.6720  167.3397 C.ar    1  UNL1        0.0385
     22 C         139.1314  139.7882  167.9015 C.ar    1  UNL1        0.1469
     23 C         138.2454  139.0051  166.9786 C.ar    1  UNL1        0.0385
     24 C         138.4333  139.1058  165.4938 C.ar    1  UNL1        0.0178
     25 O         138.9434  139.6875  169.3863 O.3     1  UNL1       -0.4045
     26 C         139.8343  140.4648  170.3094 C.3     1  UNL1        0.5753
     27 F         140.7252  141.2420  171.2325 F       1  UNL1       -0.1328
     28 F         140.7878  139.3081  170.3631 F       1  UNL1       -0.1328
     29 F         138.8808  141.6214  170.2558 F       1  UNL1       -0.1328
@<TRIPOS>BOND
     1    17    18    1
     2    18     5    1
     3     5     6   ar
     4     6     7   ar
     5     7     8   ar
     6     8     1    1
     7     1     2    2
     8     1     3   am
     9     3    19    1
    10    19    20   ar
    11    20    21   ar
    12    21    22   ar
    13    22    25    1
    14    25    26    1
    15    26    27    1
    16    26    28    1
    17    26    29    1
    18    22    23   ar
    19    23    24   ar
    20     8     9   ar
    21     9    10   ar
    22    10    11    1
    23    11    12   ar
    24    12    13   ar
    25    13    14   ar
    26    14    15   ar
    27    15    16   ar
    28    10     5   ar
    29    16    11   ar
    30    24    19   ar
    31     3     4    1
@<TRIPOS>MOLECULE
*****
 29 31 0 0 0
SMALL
GASTEIGER

@<TRIPOS>ATOM
      1 C         142.6466  138.0449  159.8068 C.2     1  UNL1        0.2495
      2 O         141.9358  139.3623  159.9015 O.2     1  UNL1       -0.2698
      3 N         143.2218  137.4128  161.0395 N.am    1  UNL1       -0.2804
      4 H         143.6884  136.5481  160.9774 H       1  UNL1        0.1552
      5 C         143.0534  135.9887  155.8248 C.ar    1  UNL1        0.1387
      6 C         142.8397  137.4721  155.8845 C.ar    1  UNL1        0.0370
      7 C         142.7041  138.1575  157.2119 C.ar    1  UNL1        0.0076
      8 C         142.7822  137.3595  158.4795 C.ar    1  UNL1        0.0539
      9 C         142.9960  135.8760  158.4198 C.ar    1  UNL1        0.0076
     10 C         143.1316  135.1906  157.0925 C.ar    1  UNL1        0.0371
     11 C         143.3454  133.7071  157.0328 C.ar    1  UNL1        0.0413
     12 C         142.3698  132.8378  156.2963 C.ar    1  UNL1        0.1023
     13 N         142.5835  131.3543  156.2366 N.ar    1  UNL1       -0.2224
     14 C         143.7729  130.7401  156.9135 C.ar    1  UNL1        0.1989
     15 N         144.7485  131.6094  157.6501 N.ar    1  UNL1       -0.2224
     16 C         144.5347  133.0929  157.7097 C.ar    1  UNL1        0.1023
     17 C         142.1025  135.4336  153.4716 C.3     1  UNL1        0.2525
     18 O         143.1891  135.3032  154.4975 O.3     1  UNL1       -0.4714
     19 C         143.0862  138.0983  162.3669 C.ar    1  UNL1        0.0507
     20 C         141.8993  137.8151  163.2394 C.ar    1  UNL1        0.0178
     21 C         141.7637  138.5005  164.5667 C.ar    1  UNL1        0.0385
     22 C         142.8150  139.4691  165.0215 C.ar    1  UNL1        0.1469
     23 C         144.0018  139.7522  164.1490 C.ar    1  UNL1        0.0385
     24 C         144.1374  139.0668  162.8217 C.ar    1  UNL1        0.0178
     25 O         142.6794  140.1545  166.3489 O.3     1  UNL1       -0.4045
     26 C         142.7168  139.3511  167.6151 C.3     1  UNL1        0.5753
     27 F         142.7543  138.5478  168.8813 F       1  UNL1       -0.1328
     28 F         141.6851  140.2564  168.2200 F       1  UNL1       -0.1328
     29 F         143.7486  138.4458  167.0103 F       1  UNL1       -0.1328
@<TRIPOS>BOND
     1    17    18    1
     2    18     5    1
     3     5     6   ar
     4     6     7   ar
     5     7     8   ar
     6     8     1    1
     7     1     2    2
     8     1     3   am
     9     3    19    1
    10    19    20   ar
    11    20    21   ar
    12    21    22   ar
    13    22    25    1
    14    25    26    1
    15    26    27    1
    16    26    28    1
    17    26    29    1
    18    22    23   ar
    19    23    24   ar
    20     8     9   ar
    21     9    10   ar
    22    10    11    1
    23    11    12   ar
    24    12    13   ar
    25    13    14   ar
    26    14    15   ar
    27    15    16   ar
    28    10     5   ar
    29    16    11   ar
    30    24    19   ar
    31     3     4    1
@<TRIPOS>MOLECULE
*****
 29 31 0 0 0
SMALL
GASTEIGER

@<TRIPOS>ATOM
      1 C         138.9204  142.3138  162.6541 C.2     1  UNL1        0.2495
      2 O         137.6957  142.7536  163.4001 O.2     1  UNL1       -0.2698
      3 N         139.9232  141.4189  163.3200 N.am    1  UNL1       -0.2804
      4 H         140.7270  141.1302  162.8303 H       1  UNL1        0.1552
      5 C         139.5861  143.6790  158.4181 C.ar    1  UNL1        0.1387
      6 C         140.1897  144.4462  159.5570 C.ar    1  UNL1        0.0370
      7 C         139.9678  143.9911  160.9690 C.ar    1  UNL1        0.0076
      8 C         139.1423  142.7689  161.2421 C.ar    1  UNL1        0.0539
      9 C         138.5387  142.0017  160.1032 C.ar    1  UNL1        0.0076
     10 C         138.7606  142.4568  158.6912 C.ar    1  UNL1        0.0371
     11 C         138.1569  141.6895  157.5523 C.ar    1  UNL1        0.0413
     12 C         138.6813  140.3281  157.2038 C.ar    1  UNL1        0.1023
     13 N         138.0777  139.5609  156.0650 N.ar    1  UNL1       -0.2224
     14 C         136.9497  140.1551  155.2746 C.ar    1  UNL1        0.1989
     15 N         136.4253  141.5166  155.6232 N.ar    1  UNL1       -0.2224
     16 C         137.0290  142.2838  156.7621 C.ar    1  UNL1        0.1023
     17 C         141.1890  144.4897  156.5411 C.3     1  UNL1        0.2525
     18 O         139.8080  144.1341  157.0062 O.3     1  UNL1       -0.4714
     19 C         139.7013  140.9638  164.7320 C.ar    1  UNL1        0.0507
     20 C         138.8189  139.7829  165.0094 C.ar    1  UNL1        0.0178
     21 C         138.5970  139.3278  166.4214 C.ar    1  UNL1        0.0385
     22 C         139.2575  140.0536  167.5559 C.ar    1  UNL1        0.1469
     23 C         140.1398  141.2345  167.2784 C.ar    1  UNL1        0.0385
     24 C         140.3617  141.6896  165.8664 C.ar    1  UNL1        0.0178
     25 O         139.0356  139.5986  168.9679 O.3     1  UNL1       -0.4045
     26 C         139.7493  140.2813  170.0969 C.3     1  UNL1        0.5753
     27 F         140.4631  140.9640  171.2258 F       1  UNL1       -0.1328
     28 F         140.8945  139.3235  169.9521 F       1  UNL1       -0.1328
     29 F         138.6041  141.2392  170.2416 F       1  UNL1       -0.1328
@<TRIPOS>BOND
     1    17    18    1
     2    18     5    1
     3     5     6   ar
     4     6     7   ar
     5     7     8   ar
     6     8     1    1
     7     1     2    2
     8     1     3   am
     9     3    19    1
    10    19    20   ar
    11    20    21   ar
    12    21    22   ar
    13    22    25    1
    14    25    26    1
    15    26    27    1
    16    26    28    1
    17    26    29    1
    18    22    23   ar
    19    23    24   ar
    20     8     9   ar
    21     9    10   ar
    22    10    11    1
    23    11    12   ar
    24    12    13   ar
    25    13    14   ar
    26    14    15   ar
    27    15    16   ar
    28    10     5   ar
    29    16    11   ar
    30    24    19   ar
    31     3     4    1
@<TRIPOS>MOLECULE
*****
 29 31 0 0 0
SMALL
GASTEIGER

@<TRIPOS>ATOM
      1 C         139.7148  139.0925  160.7270 C.2     1  UNL1        0.2495
      2 O         139.7626  137.6324  161.0675 O.2     1  UNL1       -0.2698
      3 N         140.2021  139.5672  159.3902 N.am    1  UNL1       -0.2804
      4 H         140.1707  140.5255  159.1668 H       1  UNL1        0.1552
      5 C         138.1092  142.0484  163.7161 C.ar    1  UNL1        0.1387
      6 C         137.9177  142.2874  162.2478 C.ar    1  UNL1        0.0370
      7 C         138.4529  141.3021  161.2514 C.ar    1  UNL1        0.0076
      8 C         139.1796  140.0778  161.7234 C.ar    1  UNL1        0.0539
      9 C         139.3710  139.8387  163.1918 C.ar    1  UNL1        0.0076
     10 C         138.8358  140.8240  164.1881 C.ar    1  UNL1        0.0371
     11 C         139.0273  140.5849  165.6566 C.ar    1  UNL1        0.0413
     12 C         138.3084  139.4551  166.3324 C.ar    1  UNL1        0.1023
     13 N         138.4999  139.2159  167.8008 N.ar    1  UNL1       -0.2224
     14 C         139.4102  140.1066  168.5934 C.ar    1  UNL1        0.1989
     15 N         140.1291  141.2364  167.9175 N.ar    1  UNL1       -0.2224
     16 C         139.9376  141.4755  166.4490 C.ar    1  UNL1        0.1023
     17 C         138.1876  144.3980  164.8220 C.3     1  UNL1        0.2525
     18 O         137.5740  143.0337  164.7125 O.3     1  UNL1       -0.4714
     19 C         140.7373  138.5819  158.3939 C.ar    1  UNL1        0.0507
     20 C         139.8387  138.0314  157.3264 C.ar    1  UNL1        0.0178
     21 C         140.3739  137.0461  156.3301 C.ar    1  UNL1        0.0385
     22 C         141.8078  136.6113  156.4012 C.ar    1  UNL1        0.1469
     23 C         142.7063  137.1618  157.4686 C.ar    1  UNL1        0.0385
     24 C         142.1711  138.1471  158.4650 C.ar    1  UNL1        0.0178
     25 O         142.3430  135.6260  155.4048 O.3     1  UNL1       -0.4045
     26 C         142.5986  134.2064  155.8168 C.3     1  UNL1        0.5753
     27 F         142.8542  132.7870  156.2287 F       1  UNL1       -0.1328
     28 F         144.0459  134.5316  156.0392 F       1  UNL1       -0.1328
     29 F         141.1513  133.8813  155.5944 F       1  UNL1       -0.1328
@<TRIPOS>BOND
     1    17    18    1
     2    18     5    1
     3     5     6   ar
     4     6     7   ar
     5     7     8   ar
     6     8     1    1
     7     1     2    2
     8     1     3   am
     9     3    19    1
    10    19    20   ar
    11    20    21   ar
    12    21    22   ar
    13    22    25    1
    14    25    26    1
    15    26    27    1
    16    26    28    1
    17    26    29    1
    18    22    23   ar
    19    23    24   ar
    20     8     9   ar
    21     9    10   ar
    22    10    11    1
    23    11    12   ar
    24    12    13   ar
    25    13    14   ar
    26    14    15   ar
    27    15    16   ar
    28    10     5   ar
    29    16    11   ar
    30    24    19   ar
    31     3     4    1
