@<TRIPOS>MOLECULE
*****
 34 38 0 0 0
SMALL
GASTEIGER

@<TRIPOS>ATOM
      1 N         139.7831  141.9926  160.8327 N.3     1  UNL1       -0.2695
      2 C         138.8726  141.9571  162.0242 C.3     1  UNL1        0.0939
      3 C         138.7717  140.7116  162.8540 C.3     1  UNL1        0.1107
      4 N         139.5811  139.5017  162.4923 N.am    1  UNL1       -0.2764
      5 C         139.4801  138.2563  163.3221 C.2     1  UNL1        0.2302
      6 O         140.2896  137.0464  162.9604 O.2     1  UNL1       -0.2745
      7 C         140.4916  139.5372  161.3008 C.3     1  UNL1        0.1107
      8 C         140.5926  140.7827  160.4709 C.3     1  UNL1        0.0939
      9 C         139.8842  143.2381  160.0029 C.3     1  UNL1        0.0765
     10 C         140.9717  144.2346  160.2752 C.3     1  UNL1        0.0380
     11 C         141.1652  145.4037  159.3556 C.3     1  UNL1        0.0061
     12 C         143.4560  142.5668  160.0578 C.3     1  UNL1        0.0305
     13 C         143.1080  143.2280  161.3585 C.ar    1  UNL1       -0.0260
     14 C         141.8659  144.0619  161.4673 C.ar    1  UNL1       -0.0253
     15 C         141.5179  144.7231  162.7678 C.ar    1  UNL1       -0.0044
     16 C         142.4119  144.5505  163.9598 C.ar    1  UNL1        0.0059
     17 C         143.6540  143.7166  163.8511 C.ar    1  UNL1        0.0748
     18 C         144.0021  143.0554  162.5505 C.ar    1  UNL1        0.0233
     19 C         145.2826  142.2984  162.7434 C.3     1  UNL1        0.2352
     20 O         145.7260  142.4918  164.1632 O.3     1  UNL1       -0.4404
     21 C         144.7195  143.3683  164.8479 C.2     1  UNL1        0.3413
     22 O         144.7697  143.8176  166.2781 O.2     1  UNL1       -0.2449
     23 C         138.5696  138.2207  164.5137 C.3     1  UNL1        0.1131
     24 C         139.0084  138.8318  165.8113 C.ar    1  UNL1        0.0062
     25 C         140.3650  139.4621  165.9227 C.ar    1  UNL1        0.0009
     26 C         140.8038  140.0733  167.2203 C.ar    1  UNL1        0.0386
     27 C         139.8860  140.0543  168.4066 C.ar    1  UNL1        0.1672
     28 N         138.5294  139.4240  168.2952 N.ar    1  UNL1       -0.2252
     29 C         138.0906  138.8128  166.9976 C.ar    1  UNL1        0.0968
     30 N         140.3248  140.6655  169.7043 N.ar    1  UNL1       -0.1708
     31 C         141.5619  140.3081  170.4735 C.ar    1  UNL1        0.2272
     32 N         141.6051  141.1632  171.7052 N.ar    1  UNL1       -0.1044
     33 N         140.3946  142.0490  171.6971 N.ar    1  UNL1       -0.0222
     34 N         139.6033  141.7414  170.4605 N.ar    1  UNL1       -0.0371
@<TRIPOS>BOND
     1    12    13    1
     2    13    14   ar
     3    14    10    1
     4    10    11    1
     5    10     9    1
     6     9     1    1
     7     1     2    1
     8     2     3    1
     9     3     4    1
    10     4     5   am
    11     5     6    2
    12     5    23    1
    13    23    24    1
    14    24    25   ar
    15    25    26   ar
    16    26    27   ar
    17    27    30    1
    18    30    31   ar
    19    31    32   ar
    20    32    33   ar
    21    33    34   ar
    22    27    28   ar
    23    28    29   ar
    24     4     7    1
    25     7     8    1
    26    14    15   ar
    27    15    16   ar
    28    16    17   ar
    29    17    18   ar
    30    18    19    1
    31    19    20    1
    32    20    21    1
    33    21    22    2
    34    18    13   ar
    35     8     1    1
    36    21    17    1
    37    29    24   ar
    38    34    30   ar
@<TRIPOS>MOLECULE
*****
 34 38 0 0 0
SMALL
GASTEIGER

@<TRIPOS>ATOM
      1 N         142.4620  141.4700  160.9892 N.3     1  UNL1       -0.2695
      2 C         143.0775  141.4733  162.3571 C.3     1  UNL1        0.0939
      3 C         142.8539  140.3144  163.2828 C.3     1  UNL1        0.1107
      4 N         142.0149  139.1523  162.8407 N.am    1  UNL1       -0.2764
      5 C         141.7913  137.9935  163.7665 C.2     1  UNL1        0.2302
      6 O         140.9524  136.8313  163.3243 O.2     1  UNL1       -0.2745
      7 C         141.3995  139.1490  161.4727 C.3     1  UNL1        0.1107
      8 C         141.6230  140.3078  160.5469 C.3     1  UNL1        0.0939
      9 C         142.6856  142.6288  160.0634 C.3     1  UNL1        0.0765
     10 C         141.8583  143.8720  160.2046 C.3     1  UNL1        0.0380
     11 C         141.8178  144.8765  159.0914 C.3     1  UNL1        0.0061
     12 C         139.0490  142.8439  160.4317 C.3     1  UNL1        0.0305
     13 C         139.6667  143.5967  161.5727 C.ar    1  UNL1       -0.0260
     14 C         141.0713  144.1108  161.4592 C.ar    1  UNL1       -0.0253
     15 C         141.6890  144.8634  162.6001 C.ar    1  UNL1       -0.0044
     16 C         140.9021  145.1022  163.8547 C.ar    1  UNL1        0.0059
     17 C         139.4975  144.5882  163.9682 C.ar    1  UNL1        0.0748
     18 C         138.8798  143.8354  162.8272 C.ar    1  UNL1        0.0233
     19 C         137.4856  143.4516  163.2258 C.3     1  UNL1        0.2352
     20 O         137.2416  143.9672  164.6131 O.3     1  UNL1       -0.4404
     21 C         138.4851  144.6696  165.0720 C.2     1  UNL1        0.3413
     22 O         138.6815  145.3364  166.4012 O.2     1  UNL1       -0.2449
     23 C         142.4068  137.9967  165.1344 C.3     1  UNL1        0.1131
     24 C         141.9205  138.9632  166.1733 C.ar    1  UNL1        0.0062
     25 C         140.5133  139.4795  166.1170 C.ar    1  UNL1        0.0009
     26 C         140.0269  140.4461  167.1559 C.ar    1  UNL1        0.0386
     27 C         140.9478  140.8964  168.2510 C.ar    1  UNL1        0.1672
     28 N         142.3550  140.3801  168.3072 N.ar    1  UNL1       -0.2252
     29 C         142.8414  139.4135  167.2684 C.ar    1  UNL1        0.0968
     30 N         140.4615  141.8630  169.2899 N.ar    1  UNL1       -0.1708
     31 C         140.4553  143.3581  169.1690 C.ar    1  UNL1        0.2272
     32 N         139.8860  143.9232  170.4365 N.ar    1  UNL1       -0.1044
     33 N         139.5404  142.7773  171.3407 N.ar    1  UNL1       -0.0222
     34 N         139.8960  141.5041  170.6321 N.ar    1  UNL1       -0.0371
@<TRIPOS>BOND
     1    12    13    1
     2    13    14   ar
     3    14    10    1
     4    10    11    1
     5    10     9    1
     6     9     1    1
     7     1     2    1
     8     2     3    1
     9     3     4    1
    10     4     5   am
    11     5     6    2
    12     5    23    1
    13    23    24    1
    14    24    25   ar
    15    25    26   ar
    16    26    27   ar
    17    27    30    1
    18    30    31   ar
    19    31    32   ar
    20    32    33   ar
    21    33    34   ar
    22    27    28   ar
    23    28    29   ar
    24     4     7    1
    25     7     8    1
    26    14    15   ar
    27    15    16   ar
    28    16    17   ar
    29    17    18   ar
    30    18    19    1
    31    19    20    1
    32    20    21    1
    33    21    22    2
    34    18    13   ar
    35     8     1    1
    36    21    17    1
    37    29    24   ar
    38    34    30   ar
@<TRIPOS>MOLECULE
*****
 34 38 0 0 0
SMALL
GASTEIGER

@<TRIPOS>ATOM
      1 N         142.4535  142.1746  159.8342 N.3     1  UNL1       -0.2695
      2 C         142.0127  140.9681  160.6088 C.3     1  UNL1        0.0939
      3 C         142.8375  140.4733  161.7597 C.3     1  UNL1        0.1107
      4 N         144.1031  141.1850  162.1362 N.am    1  UNL1       -0.2764
      5 C         144.9279  140.6902  163.2872 C.2     1  UNL1        0.2302
      6 O         146.1935  141.4018  163.6636 O.2     1  UNL1       -0.2745
      7 C         144.5440  142.3915  161.3616 C.3     1  UNL1        0.1107
      8 C         143.7192  142.8864  160.2106 C.3     1  UNL1        0.0939
      9 C         141.6288  142.6695  158.6832 C.3     1  UNL1        0.0765
     10 C         140.4537  143.5675  158.9339 C.3     1  UNL1        0.0380
     11 C         139.7601  144.2341  157.7830 C.3     1  UNL1        0.0061
     12 C         138.4328  141.7141  160.1509 C.3     1  UNL1        0.0305
     13 C         138.9617  142.8722  160.9441 C.ar    1  UNL1       -0.0260
     14 C         139.9722  143.7989  160.3356 C.ar    1  UNL1       -0.0253
     15 C         140.5011  144.9569  161.1287 C.ar    1  UNL1       -0.0044
     16 C         140.0197  145.1884  162.5303 C.ar    1  UNL1        0.0059
     17 C         139.0092  144.2617  163.1389 C.ar    1  UNL1        0.0748
     18 C         138.4802  143.1037  162.3457 C.ar    1  UNL1        0.0233
     19 C         137.4976  142.3640  163.2044 C.3     1  UNL1        0.2352
     20 O         137.4192  143.0650  164.5282 O.3     1  UNL1       -0.4404
     21 C         138.3534  144.2379  164.4877 C.2     1  UNL1        0.3413
     22 O         138.5903  145.2152  165.6007 O.2     1  UNL1       -0.2449
     23 C         144.4871  139.4836  164.0618 C.3     1  UNL1        0.1131
     24 C         143.7171  139.6518  165.3380 C.ar    1  UNL1        0.0062
     25 C         142.8600  140.8658  165.5423 C.ar    1  UNL1        0.0009
     26 C         142.0900  141.0341  166.8185 C.ar    1  UNL1        0.0386
     27 C         142.1770  139.9885  167.8904 C.ar    1  UNL1        0.1672
     28 N         143.0341  138.7745  167.6861 N.ar    1  UNL1       -0.2252
     29 C         143.8041  138.6062  166.4099 C.ar    1  UNL1        0.0968
     30 N         141.4069  140.1567  169.1667 N.ar    1  UNL1       -0.1708
     31 C         141.9140  140.7975  170.4245 C.ar    1  UNL1        0.2272
     32 N         140.8150  140.7504  171.4443 N.ar    1  UNL1       -0.1044
     33 N         139.6288  140.0805  170.8167 N.ar    1  UNL1       -0.0222
     34 N         139.9945  139.7136  169.4091 N.ar    1  UNL1       -0.0371
@<TRIPOS>BOND
     1    12    13    1
     2    13    14   ar
     3    14    10    1
     4    10    11    1
     5    10     9    1
     6     9     1    1
     7     1     2    1
     8     2     3    1
     9     3     4    1
    10     4     5   am
    11     5     6    2
    12     5    23    1
    13    23    24    1
    14    24    25   ar
    15    25    26   ar
    16    26    27   ar
    17    27    30    1
    18    30    31   ar
    19    31    32   ar
    20    32    33   ar
    21    33    34   ar
    22    27    28   ar
    23    28    29   ar
    24     4     7    1
    25     7     8    1
    26    14    15   ar
    27    15    16   ar
    28    16    17   ar
    29    17    18   ar
    30    18    19    1
    31    19    20    1
    32    20    21    1
    33    21    22    2
    34    18    13   ar
    35     8     1    1
    36    21    17    1
    37    29    24   ar
    38    34    30   ar
@<TRIPOS>MOLECULE
*****
 34 38 0 0 0
SMALL
GASTEIGER

@<TRIPOS>ATOM
      1 N         142.7774  139.6176  159.9828 N.3     1  UNL1       -0.2695
      2 C         143.3602  139.3461  161.3380 C.3     1  UNL1        0.0939
      3 C         142.4920  138.7980  162.4315 C.3     1  UNL1        0.1107
      4 N         141.0411  138.5214  162.1698 N.am    1  UNL1       -0.2764
      5 C         140.1730  137.9733  163.2634 C.2     1  UNL1        0.2302
      6 O         138.7221  137.6967  163.0017 O.2     1  UNL1       -0.2745
      7 C         140.4584  138.7929  160.8146 C.3     1  UNL1        0.1107
      8 C         141.3265  139.3410  159.7210 C.3     1  UNL1        0.0939
      9 C         143.6455  140.1657  158.8892 C.3     1  UNL1        0.0765
     10 C         143.8318  141.6477  158.7511 C.3     1  UNL1        0.0380
     11 C         144.9179  142.1881  157.8690 C.3     1  UNL1        0.0061
     12 C         144.6545  142.7014  161.4368 C.3     1  UNL1        0.0305
     13 C         143.3431  143.1161  160.8380 C.ar    1  UNL1       -0.0260
     14 C         142.9317  142.5892  159.4951 C.ar    1  UNL1       -0.0253
     15 C         141.6205  143.0039  158.8964 C.ar    1  UNL1       -0.0044
     16 C         140.7206  143.9454  159.6404 C.ar    1  UNL1        0.0059
     17 C         141.1319  144.4723  160.9832 C.ar    1  UNL1        0.0748
     18 C         142.4432  144.0576  161.5821 C.ar    1  UNL1        0.0233
     19 C         142.5801  144.7357  162.9130 C.3     1  UNL1        0.2352
     20 O         141.3534  145.5695  163.1367 O.3     1  UNL1       -0.4404
     21 C         140.4584  145.4067  161.9441 C.2     1  UNL1        0.3413
     22 O         139.1241  146.0631  161.7469 O.2     1  UNL1       -0.2449
     23 C         140.7556  137.7017  164.6187 C.3     1  UNL1        0.1131
     24 C         140.5986  138.7098  165.7183 C.ar    1  UNL1        0.0062
     25 C         139.2367  139.0118  166.2699 C.ar    1  UNL1        0.0009
     26 C         139.0796  140.0198  167.3695 C.ar    1  UNL1        0.0386
     27 C         140.2842  140.7258  167.9175 C.ar    1  UNL1        0.1672
     28 N         141.6460  140.4238  167.3659 N.ar    1  UNL1       -0.2252
     29 C         141.8032  139.4158  166.2663 C.ar    1  UNL1        0.0968
     30 N         140.1271  141.7339  169.0171 N.ar    1  UNL1       -0.1708
     31 C         140.4407  143.1978  168.9228 C.ar    1  UNL1        0.2272
     32 N         140.1363  143.8236  170.2515 N.ar    1  UNL1       -0.1044
     33 N         139.6345  142.7465  171.1671 N.ar    1  UNL1       -0.0222
     34 N         139.6289  141.4551  170.4042 N.ar    1  UNL1       -0.0371
@<TRIPOS>BOND
     1    12    13    1
     2    13    14   ar
     3    14    10    1
     4    10    11    1
     5    10     9    1
     6     9     1    1
     7     1     2    1
     8     2     3    1
     9     3     4    1
    10     4     5   am
    11     5     6    2
    12     5    23    1
    13    23    24    1
    14    24    25   ar
    15    25    26   ar
    16    26    27   ar
    17    27    30    1
    18    30    31   ar
    19    31    32   ar
    20    32    33   ar
    21    33    34   ar
    22    27    28   ar
    23    28    29   ar
    24     4     7    1
    25     7     8    1
    26    14    15   ar
    27    15    16   ar
    28    16    17   ar
    29    17    18   ar
    30    18    19    1
    31    19    20    1
    32    20    21    1
    33    21    22    2
    34    18    13   ar
    35     8     1    1
    36    21    17    1
    37    29    24   ar
    38    34    30   ar
@<TRIPOS>MOLECULE
*****
 34 38 0 0 0
SMALL
GASTEIGER

@<TRIPOS>ATOM
      1 N         142.1694  138.7472  160.2370 N.3     1  UNL1       -0.2695
      2 C         141.7857  138.0712  161.5199 C.3     1  UNL1        0.0939
      3 C         142.5390  138.3733  162.7812 C.3     1  UNL1        0.1107
      4 N         143.6761  139.3514  162.7598 N.am    1  UNL1       -0.2764
      5 C         144.4294  139.6535  164.0212 C.2     1  UNL1        0.2302
      6 O         145.5665  140.6315  163.9997 O.2     1  UNL1       -0.2745
      7 C         144.0598  140.0274  161.4769 C.3     1  UNL1        0.1107
      8 C         143.3065  139.7254  160.2155 C.3     1  UNL1        0.0939
      9 C         141.4160  138.4452  158.9756 C.3     1  UNL1        0.0765
     10 C         140.2114  139.2599  158.6081 C.3     1  UNL1        0.0380
     11 C         139.4602  138.9602  157.3448 C.3     1  UNL1        0.0061
     12 C         138.3304  138.6912  160.8750 C.3     1  UNL1        0.0305
     13 C         138.8174  140.0900  160.6374 C.ar    1  UNL1       -0.0260
     14 C         139.7579  140.3744  159.5040 C.ar    1  UNL1       -0.0253
     15 C         140.2449  141.7730  159.2664 C.ar    1  UNL1       -0.0044
     16 C         139.7914  142.8874  160.1622 C.ar    1  UNL1        0.0059
     17 C         138.8509  142.6031  161.2956 C.ar    1  UNL1        0.0748
     18 C         138.3639  141.2044  161.5332 C.ar    1  UNL1        0.0233
     19 C         137.4480  141.2279  162.7209 C.3     1  UNL1        0.2352
     20 O         137.3690  142.6411  163.2173 O.3     1  UNL1       -0.4404
     21 C         138.2360  143.4911  162.3365 C.2     1  UNL1        0.3413
     22 O         138.4505  144.9694  162.4726 O.2     1  UNL1       -0.2449
     23 C         144.0458  138.9775  165.3042 C.3     1  UNL1        0.1131
     24 C         143.2842  139.7339  166.3519 C.ar    1  UNL1        0.0062
     25 C         142.8766  139.0499  167.6231 C.ar    1  UNL1        0.0009
     26 C         142.1150  139.8063  168.6708 C.ar    1  UNL1        0.0386
     27 C         141.7610  141.2467  168.4474 C.ar    1  UNL1        0.1672
     28 N         142.1686  141.9307  167.1762 N.ar    1  UNL1       -0.2252
     29 C         142.9302  141.1743  166.1284 C.ar    1  UNL1        0.0968
     30 N         140.9993  142.0032  169.4951 N.ar    1  UNL1       -0.1708
     31 C         140.4305  143.3832  169.3475 C.ar    1  UNL1        0.2272
     32 N         139.7524  143.7453  170.6356 N.ar    1  UNL1       -0.1044
     33 N         139.9022  142.5889  171.5792 N.ar    1  UNL1       -0.0222
     34 N         140.6728  141.5123  170.8744 N.ar    1  UNL1       -0.0371
@<TRIPOS>BOND
     1    12    13    1
     2    13    14   ar
     3    14    10    1
     4    10    11    1
     5    10     9    1
     6     9     1    1
     7     1     2    1
     8     2     3    1
     9     3     4    1
    10     4     5   am
    11     5     6    2
    12     5    23    1
    13    23    24    1
    14    24    25   ar
    15    25    26   ar
    16    26    27   ar
    17    27    30    1
    18    30    31   ar
    19    31    32   ar
    20    32    33   ar
    21    33    34   ar
    22    27    28   ar
    23    28    29   ar
    24     4     7    1
    25     7     8    1
    26    14    15   ar
    27    15    16   ar
    28    16    17   ar
    29    17    18   ar
    30    18    19    1
    31    19    20    1
    32    20    21    1
    33    21    22    2
    34    18    13   ar
    35     8     1    1
    36    21    17    1
    37    29    24   ar
    38    34    30   ar
@<TRIPOS>MOLECULE
*****
 34 38 0 0 0
SMALL
GASTEIGER

@<TRIPOS>ATOM
      1 N         141.0118  140.0861  159.7008 N.3     1  UNL1       -0.2695
      2 C         139.8858  140.4930  160.6044 C.3     1  UNL1        0.0939
      3 C         139.6178  139.7217  161.8627 C.3     1  UNL1        0.1107
      4 N         140.4757  138.5435  162.2173 N.am    1  UNL1       -0.2764
      5 C         140.2076  137.7722  163.4756 C.2     1  UNL1        0.2302
      6 O         141.0655  136.5940  163.8302 O.2     1  UNL1       -0.2745
      7 C         141.6017  138.1365  161.3137 C.3     1  UNL1        0.1107
      8 C         141.8698  138.9078  160.0555 C.3     1  UNL1        0.0939
      9 C         141.2799  140.8573  158.4426 C.3     1  UNL1        0.0765
     10 C         142.0828  142.1232  158.4955 C.3     1  UNL1        0.0380
     11 C         142.5497  142.7690  157.2247 C.3     1  UNL1        0.0061
     12 C         140.1979  144.0901  159.7521 C.3     1  UNL1        0.0305
     13 C         141.4763  143.7269  160.4477 C.ar    1  UNL1       -0.0260
     14 C         142.4188  142.7435  159.8194 C.ar    1  UNL1       -0.0253
     15 C         143.6971  142.3803  160.5149 C.ar    1  UNL1       -0.0044
     16 C         144.0331  143.0004  161.8387 C.ar    1  UNL1        0.0059
     17 C         143.0907  143.9838  162.4670 C.ar    1  UNL1        0.0748
     18 C         141.8123  144.3471  161.7715 C.ar    1  UNL1        0.0233
     19 C         141.0843  145.3398  162.6285 C.3     1  UNL1        0.2352
     20 O         141.9127  145.5901  163.8536 O.3     1  UNL1       -0.4404
     21 C         143.1528  144.7521  163.7538 C.2     1  UNL1        0.3413
     22 O         144.2604  144.6928  164.7636 O.2     1  UNL1       -0.2449
     23 C         139.0816  138.1791  164.3793 C.3     1  UNL1        0.1131
     24 C         139.3752  138.8556  165.6854 C.ar    1  UNL1        0.0062
     25 C         140.6657  139.5968  165.8727 C.ar    1  UNL1        0.0009
     26 C         140.9595  140.2733  167.1788 C.ar    1  UNL1        0.0386
     27 C         139.9626  140.2086  168.2978 C.ar    1  UNL1        0.1672
     28 N         138.6720  139.4674  168.1105 N.ar    1  UNL1       -0.2252
     29 C         138.3783  138.7909  166.8044 C.ar    1  UNL1        0.0968
     30 N         140.2562  140.8851  169.6040 N.ar    1  UNL1       -0.1708
     31 C         140.7402  142.2941  169.7781 C.ar    1  UNL1        0.2272
     32 N         140.9004  142.5510  171.2471 N.ar    1  UNL1       -0.1044
     33 N         140.5155  141.3008  171.9810 N.ar    1  UNL1       -0.0222
     34 N         140.1173  140.2712  170.9656 N.ar    1  UNL1       -0.0371
@<TRIPOS>BOND
     1    12    13    1
     2    13    14   ar
     3    14    10    1
     4    10    11    1
     5    10     9    1
     6     9     1    1
     7     1     2    1
     8     2     3    1
     9     3     4    1
    10     4     5   am
    11     5     6    2
    12     5    23    1
    13    23    24    1
    14    24    25   ar
    15    25    26   ar
    16    26    27   ar
    17    27    30    1
    18    30    31   ar
    19    31    32   ar
    20    32    33   ar
    21    33    34   ar
    22    27    28   ar
    23    28    29   ar
    24     4     7    1
    25     7     8    1
    26    14    15   ar
    27    15    16   ar
    28    16    17   ar
    29    17    18   ar
    30    18    19    1
    31    19    20    1
    32    20    21    1
    33    21    22    2
    34    18    13   ar
    35     8     1    1
    36    21    17    1
    37    29    24   ar
    38    34    30   ar
@<TRIPOS>MOLECULE
*****
 34 38 0 0 0
SMALL
GASTEIGER

@<TRIPOS>ATOM
      1 N         140.6697  141.5246  159.3099 N.3     1  UNL1       -0.2695
      2 C         141.8441  141.6335  160.2368 C.3     1  UNL1        0.0939
      3 C         141.9200  142.7622  161.2217 C.3     1  UNL1        0.1107
      4 N         140.8216  143.7821  161.2798 N.am    1  UNL1       -0.2764
      5 C         140.8975  144.9108  162.2648 C.2     1  UNL1        0.2302
      6 O         139.7991  145.9306  162.3230 O.2     1  UNL1       -0.2745
      7 C         139.6472  143.6732  160.3530 C.3     1  UNL1        0.1107
      8 C         139.5712  142.5445  159.3681 C.3     1  UNL1        0.0939
      9 C         140.5937  140.3959  158.3250 C.3     1  UNL1        0.0765
     10 C         140.0559  139.0624  158.7524 C.3     1  UNL1        0.0380
     11 C         139.7654  138.0071  157.7267 C.3     1  UNL1        0.0061
     12 C         142.2527  137.9398  160.4596 C.3     1  UNL1        0.0305
     13 C         140.9071  138.2229  161.0592 C.ar    1  UNL1       -0.0260
     14 C         139.8087  138.7842  160.2056 C.ar    1  UNL1       -0.0253
     15 C         138.4633  139.0673  160.8051 C.ar    1  UNL1       -0.0044
     16 C         138.2160  138.7891  162.2581 C.ar    1  UNL1        0.0059
     17 C         139.3143  138.2278  163.1117 C.ar    1  UNL1        0.0748
     18 C         140.6599  137.9447  162.5123 C.ar    1  UNL1        0.0233
     19 C         141.5431  137.3963  163.5936 C.3     1  UNL1        0.2352
     20 O         140.7433  137.3404  164.8613 O.3     1  UNL1       -0.4404
     21 C         139.3659  137.8543  164.5636 C.2     1  UNL1        0.3413
     22 O         138.2381  137.9738  165.5453 O.2     1  UNL1       -0.2449
     23 C         142.0719  145.0197  163.1917 C.3     1  UNL1        0.1131
     24 C         142.2362  144.0369  164.3128 C.ar    1  UNL1        0.0062
     25 C         143.6020  143.5323  164.6736 C.ar    1  UNL1        0.0009
     26 C         143.7664  142.5494  165.7947 C.ar    1  UNL1        0.0386
     27 C         142.5651  142.0711  166.5550 C.ar    1  UNL1        0.1672
     28 N         141.1994  142.5758  166.1942 N.ar    1  UNL1       -0.2252
     29 C         141.0349  143.5586  165.0731 C.ar    1  UNL1        0.0968
     30 N         142.7294  141.0882  167.6762 N.ar    1  UNL1       -0.1708
     31 C         142.6540  139.5948  167.5577 C.ar    1  UNL1        0.2272
     32 N         142.8760  139.0099  168.9210 N.ar    1  UNL1       -0.1044
     33 N         143.0885  140.1418  169.8820 N.ar    1  UNL1       -0.0222
     34 N         142.9980  141.4263  169.1127 N.ar    1  UNL1       -0.0371
@<TRIPOS>BOND
     1    12    13    1
     2    13    14   ar
     3    14    10    1
     4    10    11    1
     5    10     9    1
     6     9     1    1
     7     1     2    1
     8     2     3    1
     9     3     4    1
    10     4     5   am
    11     5     6    2
    12     5    23    1
    13    23    24    1
    14    24    25   ar
    15    25    26   ar
    16    26    27   ar
    17    27    30    1
    18    30    31   ar
    19    31    32   ar
    20    32    33   ar
    21    33    34   ar
    22    27    28   ar
    23    28    29   ar
    24     4     7    1
    25     7     8    1
    26    14    15   ar
    27    15    16   ar
    28    16    17   ar
    29    17    18   ar
    30    18    19    1
    31    19    20    1
    32    20    21    1
    33    21    22    2
    34    18    13   ar
    35     8     1    1
    36    21    17    1
    37    29    24   ar
    38    34    30   ar
@<TRIPOS>MOLECULE
*****
 34 38 0 0 0
SMALL
GASTEIGER

@<TRIPOS>ATOM
      1 N         141.1740  139.0754  161.5952 N.3     1  UNL1       -0.2695
      2 C         142.3448  138.6912  160.7398 C.3     1  UNL1        0.0939
      3 C         142.1290  138.2828  159.3127 C.3     1  UNL1        0.1107
      4 N         140.7424  138.2586  158.7410 N.am    1  UNL1       -0.2764
      5 C         140.5267  137.8501  157.3139 C.2     1  UNL1        0.2302
      6 O         139.1402  137.8259  156.7421 O.2     1  UNL1       -0.2745
      7 C         139.5716  138.6427  159.5963 C.3     1  UNL1        0.1107
      8 C         139.7873  139.0512  161.0234 C.3     1  UNL1        0.0939
      9 C         141.3897  139.4838  163.0223 C.3     1  UNL1        0.0765
     10 C         141.1234  138.5082  164.1300 C.3     1  UNL1        0.0380
     11 C         141.2568  137.0351  163.8803 C.3     1  UNL1        0.0061
     12 C         143.2275  139.2022  166.1528 C.3     1  UNL1        0.0305
     13 C         141.7757  139.3526  166.4990 C.ar    1  UNL1       -0.0260
     14 C         140.7236  139.0056  165.4876 C.ar    1  UNL1       -0.0253
     15 C         139.2719  139.1559  165.8337 C.ar    1  UNL1       -0.0044
     16 C         138.8722  139.6533  167.1912 C.ar    1  UNL1        0.0059
     17 C         139.9242  140.0003  168.2026 C.ar    1  UNL1        0.0748
     18 C         141.3759  139.8499  167.8565 C.ar    1  UNL1        0.0233
     19 C         142.1827  140.2671  169.0502 C.3     1  UNL1        0.2352
     20 O         141.2296  140.6753  170.1341 O.3     1  UNL1       -0.4404
     21 C         139.8337  140.5104  169.6103 C.2     1  UNL1        0.3413
     22 O         138.5694  140.8040  170.3622 O.2     1  UNL1       -0.2449
     23 C         141.6975  137.4659  156.4585 C.3     1  UNL1        0.1131
     24 C         142.1126  136.0281  156.3572 C.ar    1  UNL1        0.0062
     25 C         143.2257  135.5065  157.2168 C.ar    1  UNL1        0.0009
     26 C         143.6408  134.0687  157.1156 C.ar    1  UNL1        0.0386
     27 C         142.9428  133.1524  156.1548 C.ar    1  UNL1        0.1672
     28 N         141.8297  133.6740  155.2951 N.ar    1  UNL1       -0.2252
     29 C         141.4146  135.1118  155.3963 C.ar    1  UNL1        0.0968
     30 N         143.3579  131.7145  156.0535 N.ar    1  UNL1       -0.1708
     31 C         144.7551  131.2132  155.8377 C.ar    1  UNL1        0.2272
     32 N         144.7092  129.7144  155.8011 N.ar    1  UNL1       -0.1044
     33 N         143.2837  129.2894  155.9942 N.ar    1  UNL1       -0.0222
     34 N         142.4486  130.5255  156.1502 N.ar    1  UNL1       -0.0371
@<TRIPOS>BOND
     1    12    13    1
     2    13    14   ar
     3    14    10    1
     4    10    11    1
     5    10     9    1
     6     9     1    1
     7     1     2    1
     8     2     3    1
     9     3     4    1
    10     4     5   am
    11     5     6    2
    12     5    23    1
    13    23    24    1
    14    24    25   ar
    15    25    26   ar
    16    26    27   ar
    17    27    30    1
    18    30    31   ar
    19    31    32   ar
    20    32    33   ar
    21    33    34   ar
    22    27    28   ar
    23    28    29   ar
    24     4     7    1
    25     7     8    1
    26    14    15   ar
    27    15    16   ar
    28    16    17   ar
    29    17    18   ar
    30    18    19    1
    31    19    20    1
    32    20    21    1
    33    21    22    2
    34    18    13   ar
    35     8     1    1
    36    21    17    1
    37    29    24   ar
    38    34    30   ar
@<TRIPOS>MOLECULE
*****
 34 38 0 0 0
SMALL
GASTEIGER

@<TRIPOS>ATOM
      1 N         139.8785  139.6350  159.2123 N.3     1  UNL1       -0.2695
      2 C         139.3702  139.0005  160.4729 C.3     1  UNL1        0.0939
      3 C         138.6871  139.8393  161.5120 C.3     1  UNL1        0.1107
      4 N         138.5123  141.3125  161.2906 N.am    1  UNL1       -0.2764
      5 C         137.8292  142.1513  162.3297 C.2     1  UNL1        0.2302
      6 O         137.6544  143.6245  162.1083 O.2     1  UNL1       -0.2745
      7 C         139.0206  141.9470  160.0300 C.3     1  UNL1        0.1107
      8 C         139.7038  141.1083  158.9908 C.3     1  UNL1        0.0939
      9 C         140.5616  138.7962  158.1732 C.3     1  UNL1        0.0765
     10 C         141.9964  138.3983  158.3550 C.3     1  UNL1        0.0380
     11 C         142.7172  137.6697  157.2597 C.3     1  UNL1        0.0061
     12 C         143.2469  141.1011  158.7178 C.3     1  UNL1        0.0305
     13 C         143.3357  140.0805  159.8135 C.ar    1  UNL1       -0.0260
     14 C         142.7104  138.7290  159.6321 C.ar    1  UNL1       -0.0253
     15 C         142.7992  137.7084  160.7277 C.ar    1  UNL1       -0.0044
     16 C         143.5131  138.0391  162.0047 C.ar    1  UNL1        0.0059
     17 C         144.1384  139.3905  162.1861 C.ar    1  UNL1        0.0748
     18 C         144.0497  140.4111  161.0905 C.ar    1  UNL1        0.0233
     19 C         144.7576  141.6501  161.5527 C.3     1  UNL1        0.2352
     20 O         145.2839  141.3952  162.9341 O.3     1  UNL1       -0.4404
     21 C         144.9012  139.9987  163.3255 C.2     1  UNL1        0.3413
     22 O         145.2245  139.3281  164.6278 O.2     1  UNL1       -0.2449
     23 C         137.3208  141.5168  163.5903 C.3     1  UNL1        0.1131
     24 C         138.2566  141.2712  164.7365 C.ar    1  UNL1        0.0062
     25 C         138.2571  139.9426  165.4328 C.ar    1  UNL1        0.0009
     26 C         139.1929  139.6969  166.5790 C.ar    1  UNL1        0.0386
     27 C         140.1282  140.7798  167.0290 C.ar    1  UNL1        0.1672
     28 N         140.1276  142.1085  166.3328 N.ar    1  UNL1       -0.2252
     29 C         139.1919  142.3542  165.1866 C.ar    1  UNL1        0.0968
     30 N         141.0641  140.5342  168.1753 N.ar    1  UNL1       -0.1708
     31 C         141.0511  141.2505  169.4932 C.ar    1  UNL1        0.2272
     32 N         142.1562  140.6881  170.3372 N.ar    1  UNL1       -0.1044
     33 N         142.8521  139.6243  169.5410 N.ar    1  UNL1       -0.0222
     34 N         142.1772  139.5292  168.2049 N.ar    1  UNL1       -0.0371
@<TRIPOS>BOND
     1    12    13    1
     2    13    14   ar
     3    14    10    1
     4    10    11    1
     5    10     9    1
     6     9     1    1
     7     1     2    1
     8     2     3    1
     9     3     4    1
    10     4     5   am
    11     5     6    2
    12     5    23    1
    13    23    24    1
    14    24    25   ar
    15    25    26   ar
    16    26    27   ar
    17    27    30    1
    18    30    31   ar
    19    31    32   ar
    20    32    33   ar
    21    33    34   ar
    22    27    28   ar
    23    28    29   ar
    24     4     7    1
    25     7     8    1
    26    14    15   ar
    27    15    16   ar
    28    16    17   ar
    29    17    18   ar
    30    18    19    1
    31    19    20    1
    32    20    21    1
    33    21    22    2
    34    18    13   ar
    35     8     1    1
    36    21    17    1
    37    29    24   ar
    38    34    30   ar
