@<TRIPOS>MOLECULE
*****
 43 49 0 0 0
SMALL
GASTEIGER

@<TRIPOS>ATOM
      1 C         139.9636  140.4488  164.8885 C.ar    1  UNL1        0.0156
      2 C         141.1581  140.4120  163.9821 C.ar    1  UNL1        0.0011
      3 C         141.0564  139.7641  162.6331 C.ar    1  UNL1       -0.0029
      4 C         139.7600  139.1529  162.1905 C.ar    1  UNL1       -0.0061
      5 C         138.5654  139.1896  163.0969 C.ar    1  UNL1       -0.0029
      6 C         138.6672  139.8376  164.4459 C.ar    1  UNL1        0.0011
      7 O         140.2144  144.5266  170.4165 O.2     1  UNL1       -0.2651
      8 C         140.3705  143.0406  170.2845 C.ar    1  UNL1        0.2806
      9 N         140.6283  142.2025  171.5015 N.ar    1  UNL1       -0.2062
     10 C         140.7844  140.7165  171.3696 C.ar    1  UNL1        0.1037
     11 C         140.6826  140.0686  170.0206 C.ar    1  UNL1        0.0378
     12 C         140.4248  140.9066  168.8036 C.ar    1  UNL1        0.0628
     13 N         140.3231  140.2587  167.4545 N.ar    1  UNL1       -0.3530
     14 C         140.0653  141.0967  166.2375 C.ar    1  UNL1        0.0565
     15 C         139.9092  142.5827  166.3695 C.ar    1  UNL1        0.0158
     16 C         140.0109  143.2307  167.7184 C.ar    1  UNL1        0.0077
     17 C         140.2688  142.3926  168.9355 C.ar    1  UNL1        0.0735
     18 H         140.4255  139.2833  167.3679 H       1  UNL1        0.1659
     19 C         139.6514  143.4208  165.1524 C.ar    1  UNL1        0.0014
     20 C         140.7863  144.1329  164.4780 C.ar    1  UNL1        0.0000
     21 C         140.5286  144.9710  163.2610 C.ar    1  UNL1        0.0000
     22 C         139.1359  145.0968  162.7183 C.ar    1  UNL1        0.0000
     23 C         138.0010  144.3847  163.3926 C.ar    1  UNL1        0.0000
     24 C         138.2587  143.5466  164.6097 C.ar    1  UNL1        0.0000
     25 C         139.6583  138.5050  160.8414 C.3     1  UNL1        0.0991
     26 N         140.6829  138.8027  159.7872 N.3     1  UNL1       -0.2689
     27 C         140.4233  139.8744  158.7704 C.3     1  UNL1        0.0728
     28 C         141.4480  140.1721  157.7162 C.3     1  UNL1        0.0249
     29 C         142.7324  139.3981  157.6788 C.3     1  UNL1        0.0613
     30 C         142.9920  138.3263  158.6956 C.3     1  UNL1        0.0249
     31 C         141.9672  138.0286  159.7499 C.3     1  UNL1        0.0728
     32 C         143.7570  139.6958  156.6246 C.ar    1  UNL1        0.1396
     33 N         144.3444  138.7069  155.6618 N.ar    1  UNL1       -0.1335
     34 N         145.3246  139.4345  154.7902 N.ar    1  UNL1       -0.1277
     35 C         145.3431  140.8732  155.2144 C.ar    1  UNL1        0.1807
     36 N         144.3743  141.0346  156.3481 N.ar    1  UNL1       -0.3234
     37 H         144.1780  141.8723  156.8267 H       1  UNL1        0.1686
     38 C         146.1829  141.9597  154.6109 C.ar    1  UNL1        0.1169
     39 C         147.6721  141.7992  154.5302 C.ar    1  UNL1        0.0223
     40 C         148.5119  142.8857  153.9267 C.ar    1  UNL1        0.0032
     41 C         147.8626  144.1326  153.4038 C.ar    1  UNL1        0.0207
     42 C         146.3734  144.2931  153.4844 C.ar    1  UNL1        0.0989
     43 N         145.5336  143.2067  154.0880 N.ar    1  UNL1       -0.2407
@<TRIPOS>BOND
     1     7     8    2
     2     8     9   ar
     3     9    10   ar
     4    10    11   ar
     5    11    12   ar
     6    12    13   ar
     7    13    14   ar
     8    14     1    1
     9     1     2   ar
    10     2     3   ar
    11     3     4   ar
    12     4    25    1
    13    25    26    1
    14    26    27    1
    15    27    28    1
    16    28    29    1
    17    29    32    1
    18    32    33   ar
    19    33    34   ar
    20    34    35   ar
    21    35    38    1
    22    38    39   ar
    23    39    40   ar
    24    40    41   ar
    25    41    42   ar
    26    42    43   ar
    27    35    36   ar
    28    29    30    1
    29    30    31    1
    30     4     5   ar
    31     5     6   ar
    32    14    15   ar
    33    15    19    1
    34    19    20   ar
    35    20    21   ar
    36    21    22   ar
    37    22    23   ar
    38    23    24   ar
    39    15    16   ar
    40    16    17   ar
    41    17     8   ar
    42    17    12    1
    43     6     1   ar
    44    24    19   ar
    45    31    26    1
    46    36    32   ar
    47    43    38   ar
    48    13    18    1
    49    36    37    1
@<TRIPOS>MOLECULE
*****
 43 49 0 0 0
SMALL
GASTEIGER

@<TRIPOS>ATOM
      1 C         140.7837  140.6049  164.8486 C.ar    1  UNL1        0.0156
      2 C         142.0850  139.9999  164.4121 C.ar    1  UNL1        0.0011
      3 C         142.2169  139.4167  163.0365 C.ar    1  UNL1       -0.0029
      4 C         141.0475  139.4385  162.0973 C.ar    1  UNL1       -0.0061
      5 C         139.7462  140.0435  162.5338 C.ar    1  UNL1       -0.0029
      6 C         139.6143  140.6267  163.9095 C.ar    1  UNL1        0.0011
      7 O         139.9748  144.4014  170.5216 O.2     1  UNL1       -0.2651
      8 C         140.2558  142.9379  170.3513 C.ar    1  UNL1        0.2806
      9 N         140.4049  142.0576  171.5566 N.ar    1  UNL1       -0.2062
     10 C         140.6860  140.5940  171.3862 C.ar    1  UNL1        0.1037
     11 C         140.8180  140.0108  170.0106 C.ar    1  UNL1        0.0378
     12 C         140.6689  140.8911  168.8053 C.ar    1  UNL1        0.0628
     13 N         140.8008  140.3078  167.4296 N.ar    1  UNL1       -0.3530
     14 C         140.6517  141.1881  166.2243 C.ar    1  UNL1        0.0565
     15 C         140.3706  142.6517  166.3946 C.ar    1  UNL1        0.0158
     16 C         140.2387  143.2349  167.7703 C.ar    1  UNL1        0.0077
     17 C         140.3878  142.3546  168.9756 C.ar    1  UNL1        0.0735
     18 H         140.9853  139.3473  167.3178 H       1  UNL1        0.1659
     19 C         140.2215  143.5320  165.1893 C.ar    1  UNL1        0.0014
     20 C         141.4395  144.0364  164.4736 C.ar    1  UNL1        0.0000
     21 C         141.2905  144.9167  163.2683 C.ar    1  UNL1        0.0000
     22 C         139.9234  145.2925  162.7786 C.ar    1  UNL1        0.0000
     23 C         138.7054  144.7882  163.4942 C.ar    1  UNL1        0.0000
     24 C         138.8545  143.9079  164.6995 C.ar    1  UNL1        0.0000
     25 C         141.1794  138.8553  160.7216 C.3     1  UNL1        0.0991
     26 N         142.0431  139.5328  159.6994 N.3     1  UNL1       -0.2689
     27 C         142.5934  138.7495  158.5446 C.3     1  UNL1        0.0728
     28 C         143.4571  139.4271  157.5224 C.3     1  UNL1        0.0249
     29 C         143.7706  140.8880  157.6550 C.3     1  UNL1        0.0613
     30 C         143.2203  141.6713  158.8099 C.3     1  UNL1        0.0249
     31 C         142.3565  140.9937  159.8321 C.3     1  UNL1        0.0728
     32 C         144.6343  141.5656  156.6329 C.ar    1  UNL1        0.1396
     33 N         144.1708  142.5489  155.5993 N.ar    1  UNL1       -0.1335
     34 N         145.3632  142.9698  154.7924 N.ar    1  UNL1       -0.1277
     35 C         146.5636  142.2466  155.3273 C.ar    1  UNL1        0.1807
     36 N         146.1131  141.3787  156.4647 N.ar    1  UNL1       -0.3234
     37 H         146.6872  140.7899  157.0059 H       1  UNL1        0.1686
     38 C         147.9679  142.3697  154.8147 C.ar    1  UNL1        0.1169
     39 C         148.2686  143.2821  153.6627 C.ar    1  UNL1        0.0223
     40 C         149.6729  143.4051  153.1501 C.ar    1  UNL1        0.0032
     41 C         150.7765  142.6158  153.7895 C.ar    1  UNL1        0.0207
     42 C         150.4759  141.7034  154.9414 C.ar    1  UNL1        0.0989
     43 N         149.0716  141.5803  155.4540 N.ar    1  UNL1       -0.2407
@<TRIPOS>BOND
     1     7     8    2
     2     8     9   ar
     3     9    10   ar
     4    10    11   ar
     5    11    12   ar
     6    12    13   ar
     7    13    14   ar
     8    14     1    1
     9     1     2   ar
    10     2     3   ar
    11     3     4   ar
    12     4    25    1
    13    25    26    1
    14    26    27    1
    15    27    28    1
    16    28    29    1
    17    29    32    1
    18    32    33   ar
    19    33    34   ar
    20    34    35   ar
    21    35    38    1
    22    38    39   ar
    23    39    40   ar
    24    40    41   ar
    25    41    42   ar
    26    42    43   ar
    27    35    36   ar
    28    29    30    1
    29    30    31    1
    30     4     5   ar
    31     5     6   ar
    32    14    15   ar
    33    15    19    1
    34    19    20   ar
    35    20    21   ar
    36    21    22   ar
    37    22    23   ar
    38    23    24   ar
    39    15    16   ar
    40    16    17   ar
    41    17     8   ar
    42    17    12    1
    43     6     1   ar
    44    24    19   ar
    45    31    26    1
    46    36    32   ar
    47    43    38   ar
    48    13    18    1
    49    36    37    1
@<TRIPOS>MOLECULE
*****
 43 49 0 0 0
SMALL
GASTEIGER

@<TRIPOS>ATOM
      1 C         142.4611  141.3470  165.0595 C.ar    1  UNL1        0.0156
      2 C         143.8234  140.8182  164.7211 C.ar    1  UNL1        0.0011
      3 C         144.3728  140.9925  163.3363 C.ar    1  UNL1       -0.0029
      4 C         143.5599  141.6955  162.2899 C.ar    1  UNL1       -0.0061
      5 C         142.1976  142.2242  162.6282 C.ar    1  UNL1       -0.0029
      6 C         141.6482  142.0500  164.0130 C.ar    1  UNL1        0.0011
      7 O         139.1900  139.6343  170.8575 O.2     1  UNL1       -0.2651
      8 C         140.2631  140.6499  170.5987 C.ar    1  UNL1        0.2806
      9 N         140.7866  141.4913  171.7247 N.ar    1  UNL1       -0.2062
     10 C         141.8597  142.5070  171.4660 C.ar    1  UNL1        0.1037
     11 C         142.4092  142.6812  170.0812 C.ar    1  UNL1        0.0378
     12 C         141.8857  141.8398  168.9552 C.ar    1  UNL1        0.0628
     13 N         142.4352  142.0141  167.5703 N.ar    1  UNL1       -0.3530
     14 C         141.9116  141.1727  166.4443 C.ar    1  UNL1        0.0565
     15 C         140.8385  140.1571  166.7031 C.ar    1  UNL1        0.0158
     16 C         140.2890  139.9828  168.0879 C.ar    1  UNL1        0.0077
     17 C         140.8126  140.8242  169.2140 C.ar    1  UNL1        0.0735
     18 H         143.1395  142.6807  167.4005 H       1  UNL1        0.1659
     19 C         140.3149  139.3157  165.5770 C.ar    1  UNL1        0.0014
     20 C         141.1058  138.1377  165.0904 C.ar    1  UNL1        0.0000
     21 C         140.5823  137.2963  163.9644 C.ar    1  UNL1        0.0000
     22 C         139.2679  137.6329  163.3250 C.ar    1  UNL1        0.0000
     23 C         138.4769  138.8109  163.8116 C.ar    1  UNL1        0.0000
     24 C         139.0004  139.6523  164.9376 C.ar    1  UNL1        0.0000
     25 C         144.1094  141.8697  160.9050 C.3     1  UNL1        0.0991
     26 N         143.8122  140.8495  159.8463 N.3     1  UNL1       -0.2689
     27 C         144.0635  141.1714  158.4030 C.3     1  UNL1        0.0728
     28 C         143.7662  140.1512  157.3443 C.3     1  UNL1        0.0249
     29 C         143.2176  138.8091  157.7290 C.3     1  UNL1        0.0613
     30 C         142.9663  138.4873  159.1723 C.3     1  UNL1        0.0249
     31 C         143.2636  139.5075  160.2310 C.3     1  UNL1        0.0728
     32 C         142.9204  137.7889  156.6703 C.ar    1  UNL1        0.1396
     33 N         142.7890  138.0565  155.2002 N.ar    1  UNL1       -0.1335
     34 N         142.4897  136.7550  154.5171 N.ar    1  UNL1       -0.1277
     35 C         142.4361  135.6831  155.5651 C.ar    1  UNL1        0.1807
     36 N         142.7023  136.3221  156.8958 N.ar    1  UNL1       -0.3234
     37 H         142.7291  135.8599  157.7646 H       1  UNL1        0.1686
     38 C         142.1641  134.2277  155.3245 C.ar    1  UNL1        0.1169
     39 C         142.5996  133.2066  156.3332 C.ar    1  UNL1        0.0223
     40 C         142.3277  131.7512  156.0926 C.ar    1  UNL1        0.0032
     41 C         141.6202  131.3170  154.8434 C.ar    1  UNL1        0.0207
     42 C         141.1846  132.3381  153.8346 C.ar    1  UNL1        0.0989
     43 N         141.4566  133.7934  154.0752 N.ar    1  UNL1       -0.2407
@<TRIPOS>BOND
     1     7     8    2
     2     8     9   ar
     3     9    10   ar
     4    10    11   ar
     5    11    12   ar
     6    12    13   ar
     7    13    14   ar
     8    14     1    1
     9     1     2   ar
    10     2     3   ar
    11     3     4   ar
    12     4    25    1
    13    25    26    1
    14    26    27    1
    15    27    28    1
    16    28    29    1
    17    29    32    1
    18    32    33   ar
    19    33    34   ar
    20    34    35   ar
    21    35    38    1
    22    38    39   ar
    23    39    40   ar
    24    40    41   ar
    25    41    42   ar
    26    42    43   ar
    27    35    36   ar
    28    29    30    1
    29    30    31    1
    30     4     5   ar
    31     5     6   ar
    32    14    15   ar
    33    15    19    1
    34    19    20   ar
    35    20    21   ar
    36    21    22   ar
    37    22    23   ar
    38    23    24   ar
    39    15    16   ar
    40    16    17   ar
    41    17     8   ar
    42    17    12    1
    43     6     1   ar
    44    24    19   ar
    45    31    26    1
    46    36    32   ar
    47    43    38   ar
    48    13    18    1
    49    36    37    1
@<TRIPOS>MOLECULE
*****
 43 49 0 0 0
SMALL
GASTEIGER

@<TRIPOS>ATOM
      1 C         141.8752  141.4614  164.6196 C.ar    1  UNL1        0.0156
      2 C         142.9848  140.6250  164.0546 C.ar    1  UNL1        0.0011
      3 C         143.4247  140.8232  162.6343 C.ar    1  UNL1       -0.0029
      4 C         142.7551  141.8577  161.7791 C.ar    1  UNL1       -0.0061
      5 C         141.6456  142.6941  162.3441 C.ar    1  UNL1       -0.0029
      6 C         141.2056  142.4959  163.7644 C.ar    1  UNL1        0.0011
      7 O         139.0394  139.6736  170.6206 O.2     1  UNL1       -0.2651
      8 C         140.1151  140.6689  170.3006 C.ar    1  UNL1        0.2806
      9 N         140.7507  141.4660  171.4009 N.ar    1  UNL1       -0.2062
     10 C         141.8264  142.4612  171.0809 C.ar    1  UNL1        0.1037
     11 C         142.2664  142.6594  169.6607 C.ar    1  UNL1        0.0378
     12 C         141.6308  141.8623  168.5604 C.ar    1  UNL1        0.0628
     13 N         142.0708  142.0604  167.1401 N.ar    1  UNL1       -0.3530
     14 C         141.4352  141.2633  166.0399 C.ar    1  UNL1        0.0565
     15 C         140.3595  140.2680  166.3599 C.ar    1  UNL1        0.0158
     16 C         139.9195  140.0699  167.7801 C.ar    1  UNL1        0.0077
     17 C         140.5551  140.8670  168.8804 C.ar    1  UNL1        0.0735
     18 H         142.7768  142.7136  166.9301 H       1  UNL1        0.1659
     19 C         139.7239  139.4709  165.2596 C.ar    1  UNL1        0.0014
     20 C         138.6049  140.0627  164.4548 C.ar    1  UNL1        0.0000
     21 C         137.9693  139.2657  163.3545 C.ar    1  UNL1        0.0000
     22 C         138.4526  137.8768  163.0591 C.ar    1  UNL1        0.0000
     23 C         139.5716  137.2849  163.8639 C.ar    1  UNL1        0.0000
     24 C         140.2072  138.0820  164.9641 C.ar    1  UNL1        0.0000
     25 C         143.1952  142.0558  160.3588 C.3     1  UNL1        0.0991
     26 N         142.4069  142.9487  159.4470 N.3     1  UNL1       -0.2689
     27 C         140.9145  142.8169  159.3744 C.3     1  UNL1        0.0728
     28 C         140.1262  143.7097  158.4626 C.3     1  UNL1        0.0249
     29 C         140.8303  144.7345  157.6234 C.3     1  UNL1        0.0613
     30 C         142.3228  144.8663  157.6961 C.3     1  UNL1        0.0249
     31 C         143.1110  143.9734  158.6079 C.3     1  UNL1        0.0728
     32 C         140.0421  145.6273  156.7117 C.ar    1  UNL1        0.1396
     33 N         138.8505  145.2228  155.8952 N.ar    1  UNL1       -0.1335
     34 N         138.3790  146.4269  155.1352 N.ar    1  UNL1       -0.1277
     35 C         139.2790  147.5757  155.4819 C.ar    1  UNL1        0.1807
     36 N         140.3069  147.0815  156.4562 N.ar    1  UNL1       -0.3234
     37 H         141.0286  147.6175  156.8576 H       1  UNL1        0.1686
     38 C         139.1703  148.9733  154.9481 C.ar    1  UNL1        0.1169
     39 C         138.6162  150.0658  155.8136 C.ar    1  UNL1        0.0223
     40 C         138.5075  151.4634  155.2798 C.ar    1  UNL1        0.0032
     41 C         138.9529  151.7684  153.8804 C.ar    1  UNL1        0.0207
     42 C         139.5071  150.6759  153.0147 C.ar    1  UNL1        0.0989
     43 N         139.6158  149.2783  153.5486 N.ar    1  UNL1       -0.2407
@<TRIPOS>BOND
     1     7     8    2
     2     8     9   ar
     3     9    10   ar
     4    10    11   ar
     5    11    12   ar
     6    12    13   ar
     7    13    14   ar
     8    14     1    1
     9     1     2   ar
    10     2     3   ar
    11     3     4   ar
    12     4    25    1
    13    25    26    1
    14    26    27    1
    15    27    28    1
    16    28    29    1
    17    29    32    1
    18    32    33   ar
    19    33    34   ar
    20    34    35   ar
    21    35    38    1
    22    38    39   ar
    23    39    40   ar
    24    40    41   ar
    25    41    42   ar
    26    42    43   ar
    27    35    36   ar
    28    29    30    1
    29    30    31    1
    30     4     5   ar
    31     5     6   ar
    32    14    15   ar
    33    15    19    1
    34    19    20   ar
    35    20    21   ar
    36    21    22   ar
    37    22    23   ar
    38    23    24   ar
    39    15    16   ar
    40    16    17   ar
    41    17     8   ar
    42    17    12    1
    43     6     1   ar
    44    24    19   ar
    45    31    26    1
    46    36    32   ar
    47    43    38   ar
    48    13    18    1
    49    36    37    1
@<TRIPOS>MOLECULE
*****
 43 49 0 0 0
SMALL
GASTEIGER

@<TRIPOS>ATOM
      1 C         142.4452  142.3179  164.8725 C.ar    1  UNL1        0.0156
      2 C         143.3273  143.4181  164.3614 C.ar    1  UNL1        0.0011
      3 C         143.8354  143.3780  162.9507 C.ar    1  UNL1       -0.0029
      4 C         143.4613  142.2375  162.0510 C.ar    1  UNL1       -0.0061
      5 C         142.5792  141.1372  162.5621 C.ar    1  UNL1       -0.0029
      6 C         142.0712  141.1774  163.9728 C.ar    1  UNL1        0.0011
      7 O         138.9960  142.8868  170.7911 O.2     1  UNL1       -0.2651
      8 C         140.4128  142.4785  170.5155 C.ar    1  UNL1        0.2806
      9 N         141.3215  142.1103  171.6507 N.ar    1  UNL1       -0.2062
     10 C         142.7383  141.7020  171.3752 C.ar    1  UNL1        0.1037
     11 C         143.2464  141.6619  169.9645 C.ar    1  UNL1        0.0378
     12 C         142.3377  142.0300  168.8293 C.ar    1  UNL1        0.0628
     13 N         142.8458  141.9899  167.4185 N.ar    1  UNL1       -0.3530
     14 C         141.9371  142.3580  166.2833 C.ar    1  UNL1        0.0565
     15 C         140.5203  142.7663  166.5588 C.ar    1  UNL1        0.0158
     16 C         140.0122  142.8065  167.9695 C.ar    1  UNL1        0.0077
     17 C         140.9209  142.4383  169.1048 C.ar    1  UNL1        0.0735
     18 H         143.7757  141.7219  167.2376 H       1  UNL1        0.1659
     19 C         139.6116  143.1345  165.4236 C.ar    1  UNL1        0.0014
     20 C         138.6338  142.1301  164.8896 C.ar    1  UNL1        0.0000
     21 C         137.7251  142.4982  163.7544 C.ar    1  UNL1        0.0000
     22 C         137.7942  143.8706  163.1531 C.ar    1  UNL1        0.0000
     23 C         138.7721  144.8750  163.6871 C.ar    1  UNL1        0.0000
     24 C         139.6807  144.5069  164.8223 C.ar    1  UNL1        0.0000
     25 C         143.9694  142.1973  160.6402 C.3     1  UNL1        0.0991
     26 N         143.6026  141.0525  159.7432 N.3     1  UNL1       -0.2689
     27 C         143.1834  141.3138  158.3269 C.3     1  UNL1        0.0728
     28 C         142.8165  140.1689  157.4299 C.3     1  UNL1        0.0249
     29 C         142.8689  138.7626  157.9493 C.3     1  UNL1        0.0613
     30 C         143.2881  138.5013  159.3656 C.3     1  UNL1        0.0249
     31 C         143.6550  139.6462  160.2626 C.3     1  UNL1        0.0728
     32 C         142.5021  137.6177  157.0523 C.ar    1  UNL1        0.1396
     33 N         141.8692  137.7274  155.6968 N.ar    1  UNL1       -0.1335
     34 N         141.6797  136.3396  155.1600 N.ar    1  UNL1       -0.1277
     35 C         142.1954  135.3722  156.1839 C.ar    1  UNL1        0.1807
     36 N         142.7036  136.1621  157.3533 N.ar    1  UNL1       -0.3234
     37 H         143.1000  135.7905  158.1743 H       1  UNL1        0.1686
     38 C         142.2017  133.8773  156.0599 C.ar    1  UNL1        0.1169
     39 C         141.3074  133.2037  155.0618 C.ar    1  UNL1        0.0223
     40 C         141.3138  131.7089  154.9379 C.ar    1  UNL1        0.0032
     41 C         142.2144  130.8877  155.8121 C.ar    1  UNL1        0.0207
     42 C         143.1087  131.5612  156.8103 C.ar    1  UNL1        0.0989
     43 N         143.1024  133.0561  156.9342 N.ar    1  UNL1       -0.2407
@<TRIPOS>BOND
     1     7     8    2
     2     8     9   ar
     3     9    10   ar
     4    10    11   ar
     5    11    12   ar
     6    12    13   ar
     7    13    14   ar
     8    14     1    1
     9     1     2   ar
    10     2     3   ar
    11     3     4   ar
    12     4    25    1
    13    25    26    1
    14    26    27    1
    15    27    28    1
    16    28    29    1
    17    29    32    1
    18    32    33   ar
    19    33    34   ar
    20    34    35   ar
    21    35    38    1
    22    38    39   ar
    23    39    40   ar
    24    40    41   ar
    25    41    42   ar
    26    42    43   ar
    27    35    36   ar
    28    29    30    1
    29    30    31    1
    30     4     5   ar
    31     5     6   ar
    32    14    15   ar
    33    15    19    1
    34    19    20   ar
    35    20    21   ar
    36    21    22   ar
    37    22    23   ar
    38    23    24   ar
    39    15    16   ar
    40    16    17   ar
    41    17     8   ar
    42    17    12    1
    43     6     1   ar
    44    24    19   ar
    45    31    26    1
    46    36    32   ar
    47    43    38   ar
    48    13    18    1
    49    36    37    1
@<TRIPOS>MOLECULE
*****
 43 49 0 0 0
SMALL
GASTEIGER

@<TRIPOS>ATOM
      1 C         139.8374  140.3494  164.9420 C.ar    1  UNL1        0.0156
      2 C         141.0272  140.1048  164.0619 C.ar    1  UNL1        0.0011
      3 C         140.8500  139.4405  162.7288 C.ar    1  UNL1       -0.0029
      4 C         139.4830  139.0208  162.2757 C.ar    1  UNL1       -0.0061
      5 C         138.2932  139.2654  163.1558 C.ar    1  UNL1       -0.0029
      6 C         138.4705  139.9297  164.4890 C.ar    1  UNL1        0.0011
      7 O         140.5439  144.5033  170.3731 O.2     1  UNL1       -0.2651
      8 C         140.5461  143.0065  170.2747 C.ar    1  UNL1        0.2806
      9 N         140.7255  142.1740  171.5095 N.ar    1  UNL1       -0.2062
     10 C         140.7278  140.6773  171.4112 C.ar    1  UNL1        0.1037
     11 C         140.5506  140.0130  170.0780 C.ar    1  UNL1        0.0378
     12 C         140.3712  140.8455  168.8433 C.ar    1  UNL1        0.0628
     13 N         140.1940  140.1812  167.5100 N.ar    1  UNL1       -0.3530
     14 C         140.0146  141.0136  166.2753 C.ar    1  UNL1        0.0565
     15 C         140.0124  142.5104  166.3736 C.ar    1  UNL1        0.0158
     16 C         140.1895  143.1747  167.7067 C.ar    1  UNL1        0.0077
     17 C         140.3689  142.3422  168.9416 C.ar    1  UNL1        0.0735
     18 H         140.1955  139.1988  167.4455 H       1  UNL1        0.1659
     19 C         139.8329  143.3429  165.1387 C.ar    1  UNL1        0.0014
     20 C         141.0323  143.8808  164.4161 C.ar    1  UNL1        0.0000
     21 C         140.8529  144.7133  163.1812 C.ar    1  UNL1        0.0000
     22 C         139.4742  145.0078  162.6691 C.ar    1  UNL1        0.0000
     23 C         138.2748  144.4699  163.3917 C.ar    1  UNL1        0.0000
     24 C         138.4542  143.6374  164.6265 C.ar    1  UNL1        0.0000
     25 C         139.3058  138.3566  160.9425 C.3     1  UNL1        0.0991
     26 N         139.4419  139.1574  159.6816 N.3     1  UNL1       -0.2689
     27 C         140.6946  139.0594  158.8623 C.3     1  UNL1        0.0728
     28 C         140.8306  139.8603  157.6014 C.3     1  UNL1        0.0249
     29 C         139.7139  140.7592  157.1596 C.3     1  UNL1        0.0613
     30 C         138.4612  140.8572  157.9788 C.3     1  UNL1        0.0249
     31 C         138.3252  140.0562  159.2398 C.3     1  UNL1        0.0728
     32 C         139.8500  141.5601  155.8986 C.ar    1  UNL1        0.1396
     33 N         139.0432  141.3782  154.6473 N.ar    1  UNL1       -0.1335
     34 N         139.5113  142.3891  153.6429 N.ar    1  UNL1       -0.1277
     35 C         140.6075  143.1959  154.2735 C.ar    1  UNL1        0.1807
     36 N         140.8168  142.6835  155.6676 N.ar    1  UNL1       -0.3234
     37 H         141.4734  143.0246  156.3170 H       1  UNL1        0.1686
     38 C         141.3618  144.3179  153.6240 C.ar    1  UNL1        0.1169
     39 C         142.8103  144.1448  153.2750 C.ar    1  UNL1        0.0223
     40 C         143.5646  145.2668  152.6255 C.ar    1  UNL1        0.0032
     41 C         142.8705  146.5621  152.3250 C.ar    1  UNL1        0.0207
     42 C         141.4220  146.7353  152.6739 C.ar    1  UNL1        0.0989
     43 N         140.6676  145.6133  153.3234 N.ar    1  UNL1       -0.2407
@<TRIPOS>BOND
     1     7     8    2
     2     8     9   ar
     3     9    10   ar
     4    10    11   ar
     5    11    12   ar
     6    12    13   ar
     7    13    14   ar
     8    14     1    1
     9     1     2   ar
    10     2     3   ar
    11     3     4   ar
    12     4    25    1
    13    25    26    1
    14    26    27    1
    15    27    28    1
    16    28    29    1
    17    29    32    1
    18    32    33   ar
    19    33    34   ar
    20    34    35   ar
    21    35    38    1
    22    38    39   ar
    23    39    40   ar
    24    40    41   ar
    25    41    42   ar
    26    42    43   ar
    27    35    36   ar
    28    29    30    1
    29    30    31    1
    30     4     5   ar
    31     5     6   ar
    32    14    15   ar
    33    15    19    1
    34    19    20   ar
    35    20    21   ar
    36    21    22   ar
    37    22    23   ar
    38    23    24   ar
    39    15    16   ar
    40    16    17   ar
    41    17     8   ar
    42    17    12    1
    43     6     1   ar
    44    24    19   ar
    45    31    26    1
    46    36    32   ar
    47    43    38   ar
    48    13    18    1
    49    36    37    1
@<TRIPOS>MOLECULE
*****
 43 49 0 0 0
SMALL
GASTEIGER

@<TRIPOS>ATOM
      1 C         142.1087  141.2507  163.9304 C.ar    1  UNL1        0.0156
      2 C         141.1246  140.7408  162.9197 C.ar    1  UNL1        0.0011
      3 C         141.5012  140.6838  161.4689 C.ar    1  UNL1       -0.0029
      4 C         142.8618  141.1366  161.0288 C.ar    1  UNL1       -0.0061
      5 C         143.8459  141.6464  162.0396 C.ar    1  UNL1       -0.0029
      6 C         143.4693  141.7035  163.4904 C.ar    1  UNL1        0.0011
      7 O         139.5935  142.4826  170.2079 O.2     1  UNL1       -0.2651
      8 C         140.6025  141.4790  169.7339 C.ar    1  UNL1        0.2806
      9 N         141.2349  140.5325  170.7106 N.ar    1  UNL1       -0.2062
     10 C         142.2439  139.5289  170.2366 C.ar    1  UNL1        0.1037
     11 C         142.6204  139.4718  168.7858 C.ar    1  UNL1        0.0378
     12 C         141.9880  140.4183  167.8090 C.ar    1  UNL1        0.0628
     13 N         142.3645  140.3612  166.3581 N.ar    1  UNL1       -0.3530
     14 C         141.7321  141.3077  165.3813 C.ar    1  UNL1        0.0565
     15 C         140.7232  142.3114  165.8554 C.ar    1  UNL1        0.0158
     16 C         140.3466  142.3685  167.3062 C.ar    1  UNL1        0.0077
     17 C         140.9790  141.4219  168.2830 C.ar    1  UNL1        0.0735
     18 H         143.0268  139.7025  166.0469 H       1  UNL1        0.1659
     19 C         140.0907  143.2579  164.8785 C.ar    1  UNL1        0.0014
     20 C         138.6469  143.0965  164.5052 C.ar    1  UNL1        0.0000
     21 C         138.0145  144.0430  163.5284 C.ar    1  UNL1        0.0000
     22 C         138.8259  145.1508  162.9249 C.ar    1  UNL1        0.0000
     23 C         140.2697  145.3123  163.2983 C.ar    1  UNL1        0.0000
     24 C         140.9021  144.3658  164.2751 C.ar    1  UNL1        0.0000
     25 C         143.2384  141.0795  159.5779 C.3     1  UNL1        0.0991
     26 N         143.0151  139.8203  158.7941 N.3     1  UNL1       -0.2689
     27 C         143.0672  138.4888  159.4830 C.3     1  UNL1        0.0728
     28 C         142.8439  137.2296  158.6991 C.3     1  UNL1        0.0249
     29 C         142.5684  137.3018  157.2264 C.3     1  UNL1        0.0613
     30 C         142.5163  138.6332  156.5375 C.3     1  UNL1        0.0249
     31 C         142.7396  139.8925  157.3214 C.3     1  UNL1        0.0728
     32 C         142.3451  136.0426  156.4425 C.ar    1  UNL1        0.1396
     33 N         141.1109  135.6960  155.6638 N.ar    1  UNL1       -0.1335
     34 N         141.3198  134.3480  155.0398 N.ar    1  UNL1       -0.1277
     35 C         142.6832  133.8615  155.4329 C.ar    1  UNL1        0.1807
     36 N         143.3169  134.9088  156.2998 N.ar    1  UNL1       -0.3234
     37 H         144.2132  134.8605  156.7042 H       1  UNL1        0.1686
     38 C         143.3039  132.5568  155.0298 C.ar    1  UNL1        0.1169
     39 C         144.2407  131.8513  155.9649 C.ar    1  UNL1        0.0223
     40 C         144.8614  130.5466  155.5618 C.ar    1  UNL1        0.0032
     41 C         144.5453  129.9475  154.2236 C.ar    1  UNL1        0.0207
     42 C         143.6084  130.6529  153.2884 C.ar    1  UNL1        0.0989
     43 N         142.9878  131.9576  153.6915 N.ar    1  UNL1       -0.2407
@<TRIPOS>BOND
     1     7     8    2
     2     8     9   ar
     3     9    10   ar
     4    10    11   ar
     5    11    12   ar
     6    12    13   ar
     7    13    14   ar
     8    14     1    1
     9     1     2   ar
    10     2     3   ar
    11     3     4   ar
    12     4    25    1
    13    25    26    1
    14    26    27    1
    15    27    28    1
    16    28    29    1
    17    29    32    1
    18    32    33   ar
    19    33    34   ar
    20    34    35   ar
    21    35    38    1
    22    38    39   ar
    23    39    40   ar
    24    40    41   ar
    25    41    42   ar
    26    42    43   ar
    27    35    36   ar
    28    29    30    1
    29    30    31    1
    30     4     5   ar
    31     5     6   ar
    32    14    15   ar
    33    15    19    1
    34    19    20   ar
    35    20    21   ar
    36    21    22   ar
    37    22    23   ar
    38    23    24   ar
    39    15    16   ar
    40    16    17   ar
    41    17     8   ar
    42    17    12    1
    43     6     1   ar
    44    24    19   ar
    45    31    26    1
    46    36    32   ar
    47    43    38   ar
    48    13    18    1
    49    36    37    1
@<TRIPOS>MOLECULE
*****
 43 49 0 0 0
SMALL
GASTEIGER

@<TRIPOS>ATOM
      1 C         140.9957  140.1446  165.1671 C.ar    1  UNL1        0.0156
      2 C         141.7915  138.9777  164.6622 C.ar    1  UNL1        0.0011
      3 C         141.4875  138.3885  163.3167 C.ar    1  UNL1       -0.0029
      4 C         140.3876  138.9662  162.4761 C.ar    1  UNL1       -0.0061
      5 C         139.5918  140.1331  162.9811 C.ar    1  UNL1       -0.0029
      6 C         139.8958  140.7223  164.3265 C.ar    1  UNL1        0.0011
      7 O         143.1905  143.6319  170.6691 O.2     1  UNL1       -0.2651
      8 C         142.2118  142.5016  170.5491 C.ar    1  UNL1        0.2806
      9 N         141.5371  141.9604  171.7746 N.ar    1  UNL1       -0.2062
     10 C         140.5584  140.8301  171.6547 C.ar    1  UNL1        0.1037
     11 C         140.2544  140.2408  170.3093 C.ar    1  UNL1        0.0378
     12 C         140.9290  140.7819  169.0837 C.ar    1  UNL1        0.0628
     13 N         140.6250  140.1927  167.7382 N.ar    1  UNL1       -0.3530
     14 C         141.2997  140.7338  166.5127 C.ar    1  UNL1        0.0565
     15 C         142.2784  141.8642  166.6326 C.ar    1  UNL1        0.0158
     16 C         142.5824  142.4534  167.9781 C.ar    1  UNL1        0.0077
     17 C         141.9077  141.9123  169.2037 C.ar    1  UNL1        0.0735
     18 H         139.9827  139.4508  167.6594 H       1  UNL1        0.1659
     19 C         142.9531  142.4053  165.4070 C.ar    1  UNL1        0.0014
     20 C         144.2603  141.8264  164.9531 C.ar    1  UNL1        0.0000
     21 C         144.9350  142.3674  163.7275 C.ar    1  UNL1        0.0000
     22 C         144.3024  143.4874  162.9559 C.ar    1  UNL1        0.0000
     23 C         142.9952  144.0664  163.4098 C.ar    1  UNL1        0.0000
     24 C         142.3206  143.5253  164.6354 C.ar    1  UNL1        0.0000
     25 C         140.0836  138.3769  161.1306 C.3     1  UNL1        0.0991
     26 N         140.8723  138.8051  159.9287 N.3     1  UNL1       -0.2689
     27 C         140.2536  139.7177  158.9117 C.3     1  UNL1        0.0728
     28 C         141.0423  140.1459  157.7099 C.3     1  UNL1        0.0249
     29 C         142.4499  139.6615  157.5250 C.3     1  UNL1        0.0613
     30 C         143.0687  138.7489  158.5420 C.3     1  UNL1        0.0249
     31 C         142.2799  138.3208  159.7439 C.3     1  UNL1        0.0728
     32 C         143.2387  140.0897  156.3232 C.ar    1  UNL1        0.1396
     33 N         142.6985  140.2834  154.9373 N.ar    1  UNL1       -0.1335
     34 N         143.8321  140.7128  154.0538 N.ar    1  UNL1       -0.1277
     35 C         145.0729  140.7844  154.8936 C.ar    1  UNL1        0.1807
     36 N         144.7062  140.3993  156.2962 N.ar    1  UNL1       -0.3234
     37 H         145.3207  140.3572  157.0641 H       1  UNL1        0.1686
     38 C         146.4403  141.1729  154.4149 C.ar    1  UNL1        0.1169
     39 C         147.4699  141.6521  155.3948 C.ar    1  UNL1        0.0223
     40 C         148.8374  142.0406  154.9161 C.ar    1  UNL1        0.0032
     41 C         149.1752  141.9500  153.4575 C.ar    1  UNL1        0.0207
     42 C         148.1456  141.4708  152.4775 C.ar    1  UNL1        0.0989
     43 N         146.7782  141.0823  152.9562 N.ar    1  UNL1       -0.2407
@<TRIPOS>BOND
     1     7     8    2
     2     8     9   ar
     3     9    10   ar
     4    10    11   ar
     5    11    12   ar
     6    12    13   ar
     7    13    14   ar
     8    14     1    1
     9     1     2   ar
    10     2     3   ar
    11     3     4   ar
    12     4    25    1
    13    25    26    1
    14    26    27    1
    15    27    28    1
    16    28    29    1
    17    29    32    1
    18    32    33   ar
    19    33    34   ar
    20    34    35   ar
    21    35    38    1
    22    38    39   ar
    23    39    40   ar
    24    40    41   ar
    25    41    42   ar
    26    42    43   ar
    27    35    36   ar
    28    29    30    1
    29    30    31    1
    30     4     5   ar
    31     5     6   ar
    32    14    15   ar
    33    15    19    1
    34    19    20   ar
    35    20    21   ar
    36    21    22   ar
    37    22    23   ar
    38    23    24   ar
    39    15    16   ar
    40    16    17   ar
    41    17     8   ar
    42    17    12    1
    43     6     1   ar
    44    24    19   ar
    45    31    26    1
    46    36    32   ar
    47    43    38   ar
    48    13    18    1
    49    36    37    1
@<TRIPOS>MOLECULE
*****
 43 49 0 0 0
SMALL
GASTEIGER

@<TRIPOS>ATOM
      1 C         140.6000  140.8382  164.6289 C.ar    1  UNL1        0.0156
      2 C         141.5758  140.1690  163.7069 C.ar    1  UNL1        0.0011
      3 C         141.1677  139.8241  162.3053 C.ar    1  UNL1       -0.0029
      4 C         139.7840  140.1483  161.8257 C.ar    1  UNL1       -0.0061
      5 C         138.8082  140.8175  162.7477 C.ar    1  UNL1       -0.0029
      6 C         139.2162  141.1624  164.1493 C.ar    1  UNL1        0.0011
      7 O         143.3306  143.2113  170.4738 O.2     1  UNL1       -0.2651
      8 C         142.2321  142.2180  170.2353 C.ar    1  UNL1        0.2806
      9 N         141.5417  141.5697  171.3985 N.ar    1  UNL1       -0.2062
     10 C         140.4432  140.5765  171.1601 C.ar    1  UNL1        0.1037
     11 C         140.0352  140.2315  169.7585 C.ar    1  UNL1        0.0378
     12 C         140.7256  140.8798  168.5954 C.ar    1  UNL1        0.0628
     13 N         140.3176  140.5348  167.1937 N.ar    1  UNL1       -0.3530
     14 C         141.0081  141.1831  166.0305 C.ar    1  UNL1        0.0565
     15 C         142.1065  142.1764  166.2689 C.ar    1  UNL1        0.0158
     16 C         142.5145  142.5213  167.6705 C.ar    1  UNL1        0.0077
     17 C         141.8241  141.8730  168.8338 C.ar    1  UNL1        0.0735
     18 H         139.5967  139.8829  167.0372 H       1  UNL1        0.1659
     19 C         142.7969  142.8247  165.1057 C.ar    1  UNL1        0.0014
     20 C         144.1517  142.3454  164.6756 C.ar    1  UNL1        0.0000
     21 C         144.8421  142.9937  163.5124 C.ar    1  UNL1        0.0000
     22 C         144.1778  144.1211  162.7793 C.ar    1  UNL1        0.0000
     23 C         142.8231  144.6004  163.2094 C.ar    1  UNL1        0.0000
     24 C         142.1326  143.9521  164.3726 C.ar    1  UNL1        0.0000
     25 C         139.3759  139.8034  160.4240 C.3     1  UNL1        0.0991
     26 N         139.4571  140.8398  159.3427 N.3     1  UNL1       -0.2689
     27 C         140.7215  141.0012  158.5520 C.3     1  UNL1        0.0728
     28 C         140.8027  142.0376  157.4707 C.3     1  UNL1        0.0249
     29 C         139.6194  142.9126  157.1800 C.3     1  UNL1        0.0613
     30 C         138.3550  142.7511  157.9707 C.3     1  UNL1        0.0249
     31 C         138.2739  141.7146  159.0521 C.3     1  UNL1        0.0728
     32 C         139.7006  143.9489  156.0987 C.ar    1  UNL1        0.1396
     33 N         139.9256  143.6848  154.6394 N.ar    1  UNL1       -0.1335
     34 N         139.9351  145.0040  153.9256 N.ar    1  UNL1       -0.1277
     35 C         139.7160  146.0836  154.9437 C.ar    1  UNL1        0.1807
     36 N         139.5710  145.4315  156.2868 N.ar    1  UNL1       -0.3234
     37 H         139.4177  145.8951  157.1416 H       1  UNL1        0.1686
     38 C         139.6528  147.5565  154.6674 C.ar    1  UNL1        0.1169
     39 C         138.8840  148.4596  155.5856 C.ar    1  UNL1        0.0223
     40 C         138.8208  149.9326  155.3092 C.ar    1  UNL1        0.0032
     41 C         139.5265  150.5024  154.1146 C.ar    1  UNL1        0.0207
     42 C         140.2954  149.5993  153.1963 C.ar    1  UNL1        0.0989
     43 N         140.3585  148.1264  153.4727 N.ar    1  UNL1       -0.2407
@<TRIPOS>BOND
     1     7     8    2
     2     8     9   ar
     3     9    10   ar
     4    10    11   ar
     5    11    12   ar
     6    12    13   ar
     7    13    14   ar
     8    14     1    1
     9     1     2   ar
    10     2     3   ar
    11     3     4   ar
    12     4    25    1
    13    25    26    1
    14    26    27    1
    15    27    28    1
    16    28    29    1
    17    29    32    1
    18    32    33   ar
    19    33    34   ar
    20    34    35   ar
    21    35    38    1
    22    38    39   ar
    23    39    40   ar
    24    40    41   ar
    25    41    42   ar
    26    42    43   ar
    27    35    36   ar
    28    29    30    1
    29    30    31    1
    30     4     5   ar
    31     5     6   ar
    32    14    15   ar
    33    15    19    1
    34    19    20   ar
    35    20    21   ar
    36    21    22   ar
    37    22    23   ar
    38    23    24   ar
    39    15    16   ar
    40    16    17   ar
    41    17     8   ar
    42    17    12    1
    43     6     1   ar
    44    24    19   ar
    45    31    26    1
    46    36    32   ar
    47    43    38   ar
    48    13    18    1
    49    36    37    1
