@<TRIPOS>MOLECULE
*****
 33 36 0 0 0
SMALL
GASTEIGER

@<TRIPOS>ATOM
      1 N         140.2853  138.6381  159.8551 N.3     1  UNL1       -0.2724
      2 C         139.8889  138.4050  158.4273 C.3     1  UNL1        0.0758
      3 C         140.9053  137.9205  157.4362 C.3     1  UNL1        0.0609
      4 C         142.3181  137.6691  157.8730 C.3     1  UNL1        0.1687
      5 C         142.7145  137.9022  159.3007 C.3     1  UNL1        0.0609
      6 C         141.6982  138.3867  160.2918 C.3     1  UNL1        0.0758
      7 C         139.2689  139.1226  160.8461 C.3     1  UNL1        0.0722
      8 N         140.3814  139.5446  165.1860 N.pl3   1  UNL1       -0.2932
      9 C         139.8825  138.2299  164.6641 C.3     1  UNL1        0.0922
     10 C         139.5117  138.0891  163.2174 C.3     1  UNL1        0.0229
     11 C         139.6397  139.2632  162.2927 C.3     1  UNL1        0.0194
     12 C         140.1386  140.5781  162.8147 C.3     1  UNL1        0.0229
     13 C         140.5095  140.7188  164.2612 C.3     1  UNL1        0.0922
     14 CA        140.0877  140.2419  169.0818 C.ar    1  UNL1        0.0966
     15 C         141.4938  139.9669  169.5258 C.ar    1  UNL1        0.0204
     16 C         142.5291  139.5511  168.5232 C.ar    1  UNL1        0.0044
     17 C         142.1584  139.4104  167.0766 C.ar    1  UNL1        0.0343
     18 C         140.7522  139.6854  166.6326 C.ar    1  UNL1        0.1317
     19 N         139.7169  140.1011  167.6352 N.ar    1  UNL1       -0.2295
     20 O         139.1231  142.0163  170.7162 O.co2   1  UNL1       -0.5430
     21 C         139.0524  140.6577  170.0844 C.2     1  UNL1        0.0905
     22 OXT       137.9463  139.7148  170.4553 O.co2   1  UNL1       -0.5430
     23 O         143.3345  137.1847  156.8819 O.3     1  UNL1       -0.4790
     24 C         143.1214  135.8854  156.1633 C.ar    1  UNL1        0.1392
     25 C         142.8023  135.8824  154.6977 C.ar    1  UNL1        0.0367
     26 C         142.5892  134.5831  153.9791 C.ar    1  UNL1        0.0021
     27 C         142.6951  133.2867  154.7261 C.ar    1  UNL1        0.0177
     28 C         143.0142  133.2896  156.1919 C.ar    1  UNL1        0.0590
     29 CL        143.1201  131.9932  156.9389 Cl      1  UNL1       -0.0824
     30 C         143.2273  134.5889  156.9104 C.ar    1  UNL1        0.0480
     31 C         142.4819  131.9874  154.0075 C.3     1  UNL1        0.1644
     32 O         143.6599  131.1485  153.6096 O.3     1  UNL1       -0.3772
     33 H         144.1816  131.6198  152.9413 H       1  UNL1        0.2109
@<TRIPOS>UNITY_ATOM_ATTR
20 1
charge -1
@<TRIPOS>BOND
     1    20    21   ar
     2    21    22   ar
     3    21    14    1
     4    14    15   ar
     5    15    16   ar
     6    16    17   ar
     7    17    18   ar
     8    18     8    1
     9     8     9    1
    10     9    10    1
    11    10    11    1
    12    11     7    1
    13     7     1    1
    14     1     2    1
    15     2     3    1
    16     3     4    1
    17     4    23    1
    18    23    24    1
    19    24    25   ar
    20    25    26   ar
    21    26    27   ar
    22    27    31    1
    23    31    32    1
    24    27    28   ar
    25    28    29    1
    26    28    30   ar
    27     4     5    1
    28     5     6    1
    29    11    12    1
    30    12    13    1
    31    18    19   ar
    32    19    14   ar
    33    13     8    1
    34     6     1    1
    35    30    24   ar
    36    32    33    1
@<TRIPOS>MOLECULE
*****
 33 36 0 0 0
SMALL
GASTEIGER

@<TRIPOS>ATOM
      1 N         139.1560  138.3237  161.8478 N.3     1  UNL1       -0.2724
      2 C         137.7974  138.9496  161.7359 C.3     1  UNL1        0.0758
      3 C         137.4463  139.7693  160.5297 C.3     1  UNL1        0.0609
      4 C         138.4537  139.9631  159.4355 C.3     1  UNL1        0.1687
      5 C         139.8123  139.3372  159.5473 C.3     1  UNL1        0.0609
      6 C         140.1635  138.5175  160.7535 C.3     1  UNL1        0.0758
      7 C         139.5071  137.5040  163.0539 C.3     1  UNL1        0.0722
      8 N         140.7993  139.5350  166.8560 N.pl3   1  UNL1       -0.2932
      9 C         139.3396  139.3758  166.5495 C.3     1  UNL1        0.0922
     10 C         138.9089  138.6988  165.2821 C.3     1  UNL1        0.0229
     11 C         139.9378  138.1810  164.3213 C.3     1  UNL1        0.0194
     12 C         141.3976  138.3402  164.6278 C.3     1  UNL1        0.0229
     13 C         141.8283  139.0172  165.8952 C.3     1  UNL1        0.0922
     14 CA        140.8872  142.0626  169.9143 C.ar    1  UNL1        0.0966
     15 C         142.0915  141.5660  170.6580 C.ar    1  UNL1        0.0204
     16 C         142.8651  140.3924  170.1343 C.ar    1  UNL1        0.0044
     17 C         142.4344  139.7154  168.8670 C.ar    1  UNL1        0.0343
     18 C         141.2301  140.2120  168.1234 C.ar    1  UNL1        0.1317
     19 N         140.4565  141.3856  168.6470 N.ar    1  UNL1       -0.2295
     20 O         138.8499  143.0150  171.2152 O.co2   1  UNL1       -0.5430
     21 C         140.1136  143.2362  170.4380 C.2     1  UNL1        0.0905
     22 OXT       140.6037  144.6310  170.1845 O.co2   1  UNL1       -0.5430
     23 O         138.1026  140.7827  158.2293 O.3     1  UNL1       -0.4790
     24 C         138.8993  142.0099  157.8986 C.ar    1  UNL1        0.1392
     25 C         139.4246  142.2108  156.5081 C.ar    1  UNL1        0.0367
     26 C         140.2213  143.4379  156.1773 C.ar    1  UNL1        0.0021
     27 C         140.4927  144.4641  157.2371 C.ar    1  UNL1        0.0177
     28 C         139.9674  144.2632  158.6277 C.ar    1  UNL1        0.0590
     29 CL        140.2388  145.2894  159.6875 Cl      1  UNL1       -0.0824
     30 C         139.1707  143.0361  158.9585 C.ar    1  UNL1        0.0480
     31 C         141.2894  145.6913  156.9064 C.3     1  UNL1        0.1644
     32 O         140.5877  146.9818  156.6028 O.3     1  UNL1       -0.3772
     33 H         140.0828  146.8894  155.7798 H       1  UNL1        0.2109
@<TRIPOS>UNITY_ATOM_ATTR
20 1
charge -1
@<TRIPOS>BOND
     1    20    21   ar
     2    21    22   ar
     3    21    14    1
     4    14    15   ar
     5    15    16   ar
     6    16    17   ar
     7    17    18   ar
     8    18     8    1
     9     8     9    1
    10     9    10    1
    11    10    11    1
    12    11     7    1
    13     7     1    1
    14     1     2    1
    15     2     3    1
    16     3     4    1
    17     4    23    1
    18    23    24    1
    19    24    25   ar
    20    25    26   ar
    21    26    27   ar
    22    27    31    1
    23    31    32    1
    24    27    28   ar
    25    28    29    1
    26    28    30   ar
    27     4     5    1
    28     5     6    1
    29    11    12    1
    30    12    13    1
    31    18    19   ar
    32    19    14   ar
    33    13     8    1
    34     6     1    1
    35    30    24   ar
    36    32    33    1
@<TRIPOS>MOLECULE
*****
 33 36 0 0 0
SMALL
GASTEIGER

@<TRIPOS>ATOM
      1 N         138.8568  140.3805  162.3847 N.3     1  UNL1       -0.2724
      2 C         139.1836  138.9635  162.7527 C.3     1  UNL1        0.0758
      3 C         139.0003  138.4941  164.1656 C.3     1  UNL1        0.0609
      4 C         138.4904  139.4418  165.2105 C.3     1  UNL1        0.1687
      5 C         138.1636  140.8588  164.8425 C.3     1  UNL1        0.0609
      6 C         138.3468  141.3281  163.4297 C.3     1  UNL1        0.0758
      7 C         139.0400  140.8498  160.9719 C.3     1  UNL1        0.0722
      8 N         141.6209  138.4951  158.1357 N.pl3   1  UNL1       -0.2932
      9 C         142.2516  139.4405  159.1145 C.3     1  UNL1        0.0922
     10 C         141.3913  140.2255  160.0600 C.3     1  UNL1        0.0229
     11 C         139.9003  140.0649  160.0265 C.3     1  UNL1        0.0194
     12 C         139.2696  139.1194  159.0476 C.3     1  UNL1        0.0229
     13 C         140.1299  138.3345  158.1022 C.3     1  UNL1        0.0922
     14 CA        143.2829  135.4263  156.2460 C.ar    1  UNL1        0.0966
     15 C         144.2016  136.1402  155.2994 C.ar    1  UNL1        0.0204
     16 C         144.2602  137.6391  155.2982 C.ar    1  UNL1        0.0044
     17 C         143.4000  138.4240  156.2436 C.ar    1  UNL1        0.0343
     18 C         142.4812  137.7101  157.1902 C.ar    1  UNL1        0.1317
     19 N         142.4226  136.2113  157.1914 N.ar    1  UNL1       -0.2295
     20 O         142.9288  133.1895  157.5193 O.co2   1  UNL1       -0.5430
     21 C         143.2243  133.9274  156.2473 C.2     1  UNL1        0.0905
     22 OXT       143.4613  133.1666  154.9765 O.co2   1  UNL1       -0.5430
     23 O         138.3071  138.9724  166.6233 O.3     1  UNL1       -0.4790
     24 C         139.0969  139.6033  167.7315 C.ar    1  UNL1        0.1392
     25 C         138.4715  139.7993  169.0808 C.ar    1  UNL1        0.0367
     26 C         139.2613  140.4301  170.1890 C.ar    1  UNL1        0.0021
     27 C         140.6765  140.8649  169.9481 C.ar    1  UNL1        0.0177
     28 C         141.3020  140.6690  168.5988 C.ar    1  UNL1        0.0590
     29 CL        142.7172  141.1038  168.3579 Cl      1  UNL1       -0.0824
     30 C         140.5122  140.0381  167.4905 C.ar    1  UNL1        0.0480
     31 C         141.4663  141.4958  171.0564 C.3     1  UNL1        0.1644
     32 O         140.7579  142.1972  172.1771 O.3     1  UNL1       -0.3772
     33 H         140.3058  142.9831  171.8322 H       1  UNL1        0.2109
@<TRIPOS>UNITY_ATOM_ATTR
20 1
charge -1
@<TRIPOS>BOND
     1    20    21   ar
     2    21    22   ar
     3    21    14    1
     4    14    15   ar
     5    15    16   ar
     6    16    17   ar
     7    17    18   ar
     8    18     8    1
     9     8     9    1
    10     9    10    1
    11    10    11    1
    12    11     7    1
    13     7     1    1
    14     1     2    1
    15     2     3    1
    16     3     4    1
    17     4    23    1
    18    23    24    1
    19    24    25   ar
    20    25    26   ar
    21    26    27   ar
    22    27    31    1
    23    31    32    1
    24    27    28   ar
    25    28    29    1
    26    28    30   ar
    27     4     5    1
    28     5     6    1
    29    11    12    1
    30    12    13    1
    31    18    19   ar
    32    19    14   ar
    33    13     8    1
    34     6     1    1
    35    30    24   ar
    36    32    33    1
@<TRIPOS>MOLECULE
*****
 33 36 0 0 0
SMALL
GASTEIGER

@<TRIPOS>ATOM
      1 N         138.9385  139.2695  161.2860 N.3     1  UNL1       -0.2724
      2 C         140.1662  138.4363  161.5062 C.3     1  UNL1        0.0758
      3 C         141.1452  138.2331  160.3879 C.3     1  UNL1        0.0609
      4 C         140.8964  138.8631  159.0496 C.3     1  UNL1        0.1687
      5 C         139.6686  139.6963  158.8294 C.3     1  UNL1        0.0609
      6 C         138.6897  139.8995  159.9476 C.3     1  UNL1        0.0758
      7 C         137.9596  139.4727  162.4042 C.3     1  UNL1        0.0722
      8 N         139.4403  140.4254  166.5454 N.pl3   1  UNL1       -0.2932
      9 C         139.2956  141.5202  165.5303 C.3     1  UNL1        0.0922
     10 C         138.8020  141.2027  164.1499 C.3     1  UNL1        0.0229
     11 C         138.4531  139.7903  163.7846 C.3     1  UNL1        0.0194
     12 C         138.5978  138.6955  164.7998 C.3     1  UNL1        0.0229
     13 C         139.0914  139.0131  166.1801 C.3     1  UNL1        0.0922
     14 CA        141.6435  141.9196  169.4888 C.ar    1  UNL1        0.0966
     15 C         140.9210  141.3782  170.6866 C.ar    1  UNL1        0.0204
     16 C         139.7049  140.5192  170.5041 C.ar    1  UNL1        0.0044
     17 C         139.2113  140.2016  169.1237 C.ar    1  UNL1        0.0343
     18 C         139.9338  140.7430  167.9259 C.ar    1  UNL1        0.1317
     19 N         141.1499  141.6020  168.1084 N.ar    1  UNL1       -0.2295
     20 O         143.9436  142.7738  168.6347 O.co2   1  UNL1       -0.5430
     21 C         142.8596  142.7785  169.6714 C.2     1  UNL1        0.0905
     22 OXT       142.9916  143.6422  170.8906 O.co2   1  UNL1       -0.5430
     23 O         141.8753  138.6599  157.9314 O.3     1  UNL1       -0.4790
     24 C         141.7930  137.4299  157.0767 C.ar    1  UNL1        0.1392
     25 C         140.6266  137.2344  156.1542 C.ar    1  UNL1        0.0367
     26 C         140.5442  136.0044  155.2995 C.ar    1  UNL1        0.0021
     27 C         141.6283  134.9700  155.3674 C.ar    1  UNL1        0.0177
     28 C         142.7948  135.1655  156.2901 C.ar    1  UNL1        0.0590
     29 CL        143.8789  134.1311  156.3580 Cl      1  UNL1       -0.0824
     30 C         142.8771  136.3955  157.1447 C.ar    1  UNL1        0.0480
     31 C         141.5460  133.7400  154.5128 C.3     1  UNL1        0.1644
     32 O         142.2806  133.6841  153.2062 O.3     1  UNL1       -0.3772
     33 H         141.9006  134.3332  152.5936 H       1  UNL1        0.2109
@<TRIPOS>UNITY_ATOM_ATTR
20 1
charge -1
@<TRIPOS>BOND
     1    20    21   ar
     2    21    22   ar
     3    21    14    1
     4    14    15   ar
     5    15    16   ar
     6    16    17   ar
     7    17    18   ar
     8    18     8    1
     9     8     9    1
    10     9    10    1
    11    10    11    1
    12    11     7    1
    13     7     1    1
    14     1     2    1
    15     2     3    1
    16     3     4    1
    17     4    23    1
    18    23    24    1
    19    24    25   ar
    20    25    26   ar
    21    26    27   ar
    22    27    31    1
    23    31    32    1
    24    27    28   ar
    25    28    29    1
    26    28    30   ar
    27     4     5    1
    28     5     6    1
    29    11    12    1
    30    12    13    1
    31    18    19   ar
    32    19    14   ar
    33    13     8    1
    34     6     1    1
    35    30    24   ar
    36    32    33    1
@<TRIPOS>MOLECULE
*****
 33 36 0 0 0
SMALL
GASTEIGER

@<TRIPOS>ATOM
      1 N         139.9761  145.0384  160.0966 N.3     1  UNL1       -0.2724
      2 C         140.2579  145.8115  158.8425 C.3     1  UNL1        0.0758
      3 C         140.1919  145.1275  157.5090 C.3     1  UNL1        0.0609
      4 C         139.8441  143.6706  157.4298 C.3     1  UNL1        0.1687
      5 C         139.5623  142.8975  158.6840 C.3     1  UNL1        0.0609
      6 C         139.6282  143.5814  160.0173 C.3     1  UNL1        0.0758
      7 C         140.0420  145.7222  161.4300 C.3     1  UNL1        0.0722
      8 N         140.0747  143.2821  165.2108 N.pl3   1  UNL1       -0.2932
      9 C         138.7777  143.8002  164.6638 C.3     1  UNL1        0.0922
     10 C         138.7668  144.6136  163.4035 C.3     1  UNL1        0.0229
     11 C         140.0529  144.9089  162.6903 C.3     1  UNL1        0.0194
     12 C         141.3500  144.3907  163.2374 C.3     1  UNL1        0.0229
     13 C         141.3608  143.5774  164.4976 C.3     1  UNL1        0.0922
     14 CA        140.3134  142.3265  169.0553 C.ar    1  UNL1        0.0966
     15 C         140.1075  140.8421  168.9917 C.ar    1  UNL1        0.0204
     16 C         139.8906  140.1710  167.6679 C.ar    1  UNL1        0.0044
     17 C         139.8797  140.9843  166.4076 C.ar    1  UNL1        0.0343
     18 C         140.0856  142.4687  166.4712 C.ar    1  UNL1        0.1317
     19 N         140.3025  143.1398  167.7950 N.ar    1  UNL1       -0.2295
     20 O         140.3927  142.2122  171.6496 O.co2   1  UNL1       -0.5430
     21 C         140.5303  142.9976  170.3792 C.2     1  UNL1        0.0905
     22 OXT       140.8847  144.4541  170.4326 O.co2   1  UNL1       -0.5430
     23 O         139.7782  142.9867  156.0964 O.3     1  UNL1       -0.4790
     24 C         138.5967  142.1295  155.7508 C.ar    1  UNL1        0.1392
     25 C         137.2138  142.7094  155.7848 C.ar    1  UNL1        0.0367
     26 C         136.0324  141.8522  155.4392 C.ar    1  UNL1        0.0021
     27 C         136.2339  140.4151  155.0595 C.ar    1  UNL1        0.0177
     28 C         137.6169  139.8352  155.0254 C.ar    1  UNL1        0.0590
     29 CL        137.8184  138.3981  154.6458 Cl      1  UNL1       -0.0824
     30 C         138.7983  140.6924  155.3711 C.ar    1  UNL1        0.0480
     31 C         135.0525  139.5579  154.7139 C.3     1  UNL1        0.1644
     32 O         133.6842  139.9360  155.1984 O.3     1  UNL1       -0.3772
     33 H         133.6544  139.8711  156.1657 H       1  UNL1        0.2109
@<TRIPOS>UNITY_ATOM_ATTR
20 1
charge -1
@<TRIPOS>BOND
     1    20    21   ar
     2    21    22   ar
     3    21    14    1
     4    14    15   ar
     5    15    16   ar
     6    16    17   ar
     7    17    18   ar
     8    18     8    1
     9     8     9    1
    10     9    10    1
    11    10    11    1
    12    11     7    1
    13     7     1    1
    14     1     2    1
    15     2     3    1
    16     3     4    1
    17     4    23    1
    18    23    24    1
    19    24    25   ar
    20    25    26   ar
    21    26    27   ar
    22    27    31    1
    23    31    32    1
    24    27    28   ar
    25    28    29    1
    26    28    30   ar
    27     4     5    1
    28     5     6    1
    29    11    12    1
    30    12    13    1
    31    18    19   ar
    32    19    14   ar
    33    13     8    1
    34     6     1    1
    35    30    24   ar
    36    32    33    1
@<TRIPOS>MOLECULE
*****
 33 36 0 0 0
SMALL
GASTEIGER

@<TRIPOS>ATOM
      1 N         138.3036  139.2333  162.6438 N.3     1  UNL1       -0.2724
      2 C         138.8475  137.9836  163.2701 C.3     1  UNL1        0.0758
      3 C         139.0177  137.9033  164.7583 C.3     1  UNL1        0.0609
      4 C         138.6440  139.0727  165.6201 C.3     1  UNL1        0.1687
      5 C         138.1000  140.3224  164.9938 C.3     1  UNL1        0.0609
      6 C         137.9298  140.4028  163.5057 C.3     1  UNL1        0.0758
      7 C         138.1334  139.3137  161.1557 C.3     1  UNL1        0.0722
      8 N         141.7432  139.6908  158.4954 N.pl3   1  UNL1       -0.2932
      9 C         140.5518  138.9039  158.0358 C.3     1  UNL1        0.0922
     10 C         139.3485  138.7782  158.9226 C.3     1  UNL1        0.0229
     11 C         139.3367  139.4394  160.2689 C.3     1  UNL1        0.0194
     12 C         140.5282  140.2263  160.7285 C.3     1  UNL1        0.0229
     13 C         141.7314  140.3520  159.8418 C.3     1  UNL1        0.0922
     14 CA        145.1108  141.0772  156.9182 C.ar    1  UNL1        0.0966
     15 C         145.3531  140.0680  155.8353 C.ar    1  UNL1        0.0204
     16 C         144.3922  138.9330  155.6391 C.ar    1  UNL1        0.0044
     17 C         143.1889  138.8072  156.5258 C.ar    1  UNL1        0.0343
     18 C         142.9466  139.8165  157.6086 C.ar    1  UNL1        0.1317
     19 N         143.9075  140.9514  157.8048 N.ar    1  UNL1       -0.2295
     20 O         146.1151  142.9400  158.4252 O.co2   1  UNL1       -0.5430
     21 C         146.0717  142.2122  157.1144 C.2     1  UNL1        0.0905
     22 OXT       146.9891  142.6193  155.9997 O.co2   1  UNL1       -0.5430
     23 O         138.8141  138.9923  167.1082 O.3     1  UNL1       -0.4790
     24 C         139.7029  139.9721  167.8155 C.ar    1  UNL1        0.1392
     25 C         139.3670  140.4207  169.2068 C.ar    1  UNL1        0.0367
     26 C         140.2557  141.4005  169.9141 C.ar    1  UNL1        0.0021
     27 C         141.4803  141.9317  169.2300 C.ar    1  UNL1        0.0177
     28 C         141.8163  141.4831  167.8385 C.ar    1  UNL1        0.0590
     29 CL        143.0409  142.0143  167.1544 Cl      1  UNL1       -0.0824
     30 C         140.9276  140.5033  167.1313 C.ar    1  UNL1        0.0480
     31 C         142.3691  142.9114  169.9372 C.3     1  UNL1        0.1644
     32 O         142.5341  142.8352  171.4261 O.3     1  UNL1       -0.3772
     33 H         141.6896  143.0423  171.8561 H       1  UNL1        0.2109
@<TRIPOS>UNITY_ATOM_ATTR
20 1
charge -1
@<TRIPOS>BOND
     1    20    21   ar
     2    21    22   ar
     3    21    14    1
     4    14    15   ar
     5    15    16   ar
     6    16    17   ar
     7    17    18   ar
     8    18     8    1
     9     8     9    1
    10     9    10    1
    11    10    11    1
    12    11     7    1
    13     7     1    1
    14     1     2    1
    15     2     3    1
    16     3     4    1
    17     4    23    1
    18    23    24    1
    19    24    25   ar
    20    25    26   ar
    21    26    27   ar
    22    27    31    1
    23    31    32    1
    24    27    28   ar
    25    28    29    1
    26    28    30   ar
    27     4     5    1
    28     5     6    1
    29    11    12    1
    30    12    13    1
    31    18    19   ar
    32    19    14   ar
    33    13     8    1
    34     6     1    1
    35    30    24   ar
    36    32    33    1
@<TRIPOS>MOLECULE
*****
 33 36 0 0 0
SMALL
GASTEIGER

@<TRIPOS>ATOM
      1 N         139.9260  139.7971  160.4036 N.3     1  UNL1       -0.2724
      2 C         139.9707  140.9496  161.3627 C.3     1  UNL1        0.0758
      3 C         139.5318  140.7595  162.7844 C.3     1  UNL1        0.0609
      4 C         139.0483  139.4171  163.2471 C.3     1  UNL1        0.1687
      5 C         139.0036  138.2647  162.2880 C.3     1  UNL1        0.0609
      6 C         139.4424  138.4546  160.8663 C.3     1  UNL1        0.0758
      7 C         140.3648  139.9870  158.9819 C.3     1  UNL1        0.0722
      8 N         141.5522  136.4268  156.4990 N.pl3   1  UNL1       -0.2932
      9 C         140.1687  136.9945  156.3825 C.3     1  UNL1        0.0922
     10 C         139.7729  138.1813  157.2102 C.3     1  UNL1        0.0229
     11 C         140.7606  138.8003  158.1542 C.3     1  UNL1        0.0194
     12 C         142.1441  138.2325  158.2707 C.3     1  UNL1        0.0229
     13 C         142.5399  137.0458  157.4431 C.3     1  UNL1        0.0922
     14 CA        143.0384  132.8891  155.4860 C.ar    1  UNL1        0.0966
     15 C         142.7398  132.8666  154.0162 C.ar    1  UNL1        0.0204
     16 C         142.0453  134.0307  153.3740 C.ar    1  UNL1        0.0044
     17 C         141.6494  135.2175  154.2016 C.ar    1  UNL1        0.0343
     18 C         141.9481  135.2400  155.6713 C.ar    1  UNL1        0.1317
     19 N         142.6426  134.0759  156.3135 N.ar    1  UNL1       -0.2295
     20 O         145.1877  131.4780  155.8590 O.co2   1  UNL1       -0.5430
     21 C         143.7329  131.7250  156.1282 C.2     1  UNL1        0.0905
     22 OXT       142.9726  130.8078  157.0396 O.co2   1  UNL1       -0.5430
     23 O         138.6095  139.2272  164.6688 O.3     1  UNL1       -0.4790
     24 C         139.5968  139.3890  165.7864 C.ar    1  UNL1        0.1392
     25 C         139.1504  139.9420  167.1073 C.ar    1  UNL1        0.0367
     26 C         140.1377  140.1038  168.2250 C.ar    1  UNL1        0.0021
     27 C         141.5714  139.7125  168.0217 C.ar    1  UNL1        0.0177
     28 C         142.0179  139.1595  166.7007 C.ar    1  UNL1        0.0590
     29 CL        143.4516  138.7683  166.4974 Cl      1  UNL1       -0.0824
     30 C         141.0306  138.9977  165.5831 C.ar    1  UNL1        0.0480
     31 C         142.5587  139.8743  169.1393 C.3     1  UNL1        0.1644
     32 O         142.2089  139.4101  170.5221 O.3     1  UNL1       -0.3772
     33 H         141.4808  139.9487  170.8695 H       1  UNL1        0.2109
@<TRIPOS>UNITY_ATOM_ATTR
20 1
charge -1
@<TRIPOS>BOND
     1    20    21   ar
     2    21    22   ar
     3    21    14    1
     4    14    15   ar
     5    15    16   ar
     6    16    17   ar
     7    17    18   ar
     8    18     8    1
     9     8     9    1
    10     9    10    1
    11    10    11    1
    12    11     7    1
    13     7     1    1
    14     1     2    1
    15     2     3    1
    16     3     4    1
    17     4    23    1
    18    23    24    1
    19    24    25   ar
    20    25    26   ar
    21    26    27   ar
    22    27    31    1
    23    31    32    1
    24    27    28   ar
    25    28    29    1
    26    28    30   ar
    27     4     5    1
    28     5     6    1
    29    11    12    1
    30    12    13    1
    31    18    19   ar
    32    19    14   ar
    33    13     8    1
    34     6     1    1
    35    30    24   ar
    36    32    33    1
@<TRIPOS>MOLECULE
*****
 33 36 0 0 0
SMALL
GASTEIGER

@<TRIPOS>ATOM
      1 N         138.3939  138.8018  163.0433 N.3     1  UNL1       -0.2724
      2 C         138.0805  140.1209  163.6848 C.3     1  UNL1        0.0758
      3 C         138.1822  140.2739  165.1736 C.3     1  UNL1        0.0609
      4 C         138.5974  139.1078  166.0207 C.3     1  UNL1        0.1687
      5 C         138.9108  137.7886  165.3792 C.3     1  UNL1        0.0609
      6 C         138.8091  137.6356  163.8905 C.3     1  UNL1        0.0758
      7 C         138.2922  138.6487  161.5546 C.3     1  UNL1        0.0722
      8 N         141.6801  139.9972  158.9176 N.pl3   1  UNL1       -0.2932
      9 C         140.3351  140.6514  158.8040 C.3     1  UNL1        0.0922
     10 C         139.2058  140.2019  159.6830 C.3     1  UNL1        0.0229
     11 C         139.4215  139.0982  160.6756 C.3     1  UNL1        0.0194
     12 C         140.7666  138.4440  160.7892 C.3     1  UNL1        0.0229
     13 C         141.8958  138.8935  159.9102 C.3     1  UNL1        0.0922
     14 CA        144.4801  139.9768  156.1051 C.ar    1  UNL1        0.0966
     15 C         145.0680  141.3455  156.2806 C.ar    1  UNL1        0.0204
     16 C         144.5267  142.2648  157.3350 C.ar    1  UNL1        0.0044
     17 C         143.3974  141.8154  158.2140 C.ar    1  UNL1        0.0343
     18 C         142.8095  140.4467  158.0386 C.ar    1  UNL1        0.1317
     19 N         143.3508  139.5274  156.9841 N.ar    1  UNL1       -0.2295
     20 O         145.1607  137.5911  155.3338 O.co2   1  UNL1       -0.5430
     21 C         145.0214  139.0575  155.0507 C.2     1  UNL1        0.0905
     22 OXT       145.4234  139.6046  153.7132 O.co2   1  UNL1       -0.5430
     23 O         138.6991  139.2608  167.5094 O.3     1  UNL1       -0.4790
     24 C         139.9146  139.8961  168.1167 C.ar    1  UNL1        0.1392
     25 C         141.2220  139.8677  167.3821 C.ar    1  UNL1        0.0367
     26 C         142.4376  140.5029  167.9894 C.ar    1  UNL1        0.0021
     27 C         142.3457  141.1666  169.3315 C.ar    1  UNL1        0.0177
     28 C         141.0382  141.1950  170.0662 C.ar    1  UNL1        0.0590
     29 CL        140.9464  141.8586  171.4083 Cl      1  UNL1       -0.0824
     30 C         139.8227  140.5597  169.4589 C.ar    1  UNL1        0.0480
     31 C         143.5613  141.8018  169.9388 C.3     1  UNL1        0.1644
     32 O         143.5964  143.2832  170.1715 O.3     1  UNL1       -0.3772
     33 H         143.5810  143.7449  169.3185 H       1  UNL1        0.2109
@<TRIPOS>UNITY_ATOM_ATTR
20 1
charge -1
@<TRIPOS>BOND
     1    20    21   ar
     2    21    22   ar
     3    21    14    1
     4    14    15   ar
     5    15    16   ar
     6    16    17   ar
     7    17    18   ar
     8    18     8    1
     9     8     9    1
    10     9    10    1
    11    10    11    1
    12    11     7    1
    13     7     1    1
    14     1     2    1
    15     2     3    1
    16     3     4    1
    17     4    23    1
    18    23    24    1
    19    24    25   ar
    20    25    26   ar
    21    26    27   ar
    22    27    31    1
    23    31    32    1
    24    27    28   ar
    25    28    29    1
    26    28    30   ar
    27     4     5    1
    28     5     6    1
    29    11    12    1
    30    12    13    1
    31    18    19   ar
    32    19    14   ar
    33    13     8    1
    34     6     1    1
    35    30    24   ar
    36    32    33    1
@<TRIPOS>MOLECULE
*****
 33 36 0 0 0
SMALL
GASTEIGER

@<TRIPOS>ATOM
      1 N         138.9032  143.5050  161.0732 N.3     1  UNL1       -0.2724
      2 C         139.8837  144.6382  161.1417 C.3     1  UNL1        0.0758
      3 C         140.6893  145.0070  159.9312 C.3     1  UNL1        0.0609
      4 C         140.5144  144.2428  158.6525 C.3     1  UNL1        0.1687
      5 C         139.5339  143.1096  158.5841 C.3     1  UNL1        0.0609
      6 C         138.7284  142.7407  159.7944 C.3     1  UNL1        0.0758
      7 C         138.0977  143.1361  162.2836 C.3     1  UNL1        0.0722
      8 N         140.1138  141.2580  165.8413 N.pl3   1  UNL1       -0.2932
      9 C         139.6519  140.3995  164.7013 C.3     1  UNL1        0.0922
     10 C         138.9798  141.0256  163.5153 C.3     1  UNL1        0.0229
     11 C         138.7697  142.5101  163.4695 C.3     1  UNL1        0.0194
     12 C         139.2316  143.3685  164.6096 C.3     1  UNL1        0.0229
     13 C         139.9037  142.7425  165.7955 C.3     1  UNL1        0.0922
     14 CA        140.8468  140.1363  169.5769 C.ar    1  UNL1        0.0966
     15 C         142.1299  139.3799  169.3992 C.ar    1  UNL1        0.0204
     16 C         142.7409  139.2496  168.0355 C.ar    1  UNL1        0.0044
     17 C         142.0689  139.8756  166.8496 C.ar    1  UNL1        0.0343
     18 C         140.7859  140.6319  167.0273 C.ar    1  UNL1        0.1317
     19 N         140.1748  140.7623  168.3910 N.ar    1  UNL1       -0.2295
     20 O         140.5660  141.4505  171.8004 O.co2   1  UNL1       -0.5430
     21 C         140.2357  140.2666  170.9406 C.2     1  UNL1        0.0905
     22 OXT       139.2944  139.2131  171.4445 O.co2   1  UNL1       -0.5430
     23 O         141.3199  144.6116  157.4421 O.3     1  UNL1       -0.4790
     24 C         142.5624  143.8419  157.1050 C.ar    1  UNL1        0.1392
     25 C         143.4018  143.2552  158.2010 C.ar    1  UNL1        0.0367
     26 C         144.6443  142.4854  157.8639 C.ar    1  UNL1        0.0021
     27 C         145.0475  142.3024  156.4308 C.ar    1  UNL1        0.0177
     28 C         144.2081  142.8891  155.3347 C.ar    1  UNL1        0.0590
     29 CL        144.6113  142.7060  153.9016 Cl      1  UNL1       -0.0824
     30 C         142.9656  143.6588  155.6718 C.ar    1  UNL1        0.0480
     31 C         146.2900  141.5326  156.0936 C.3     1  UNL1        0.1644
     32 O         147.6288  142.2064  156.1524 O.3     1  UNL1       -0.3772
     33 H         147.6744  142.8949  155.4706 H       1  UNL1        0.2109
@<TRIPOS>UNITY_ATOM_ATTR
20 1
charge -1
@<TRIPOS>BOND
     1    20    21   ar
     2    21    22   ar
     3    21    14    1
     4    14    15   ar
     5    15    16   ar
     6    16    17   ar
     7    17    18   ar
     8    18     8    1
     9     8     9    1
    10     9    10    1
    11    10    11    1
    12    11     7    1
    13     7     1    1
    14     1     2    1
    15     2     3    1
    16     3     4    1
    17     4    23    1
    18    23    24    1
    19    24    25   ar
    20    25    26   ar
    21    26    27   ar
    22    27    31    1
    23    31    32    1
    24    27    28   ar
    25    28    29    1
    26    28    30   ar
    27     4     5    1
    28     5     6    1
    29    11    12    1
    30    12    13    1
    31    18    19   ar
    32    19    14   ar
    33    13     8    1
    34     6     1    1
    35    30    24   ar
    36    32    33    1
