@<TRIPOS>MOLECULE
*****
 42 47 0 0 0
SMALL
GASTEIGER

@<TRIPOS>ATOM
      1 C         138.5282  140.2011  162.3614 C.ar    1  UNL1       -0.0061
      2 C         138.1755  141.2469  163.3772 C.ar    1  UNL1       -0.0028
      3 C         138.1887  140.9078  164.8383 C.ar    1  UNL1        0.0030
      4 C         138.5547  139.5229  165.2836 C.ar    1  UNL1        0.0420
      5 C         138.9074  138.4772  164.2677 C.ar    1  UNL1        0.0030
      6 C         138.8942  138.8163  162.8066 C.ar    1  UNL1       -0.0028
      7 C         138.5679  139.1838  166.7447 C.2     1  UNL1        0.2297
      8 O         137.6266  138.1472  167.2825 O.2     1  UNL1       -0.2833
      9 C         139.5224  139.8814  167.6679 C.ar    1  UNL1        0.1873
     10 N         139.2258  140.3298  169.0682 N.ar    1  UNL1       -0.2235
     11 C         140.4612  140.9785  169.6187 C.ar    1  UNL1        0.0991
     12 C         140.7577  141.6064  170.9483 C.ar    1  UNL1        0.0206
     13 C         142.1144  142.1867  171.2178 C.ar    1  UNL1        0.0016
     14 C         143.1745  142.1391  170.1576 C.ar    1  UNL1        0.0016
     15 C         142.8780  141.5113  168.8281 C.ar    1  UNL1        0.0191
     16 C         141.5213  140.9310  168.5586 C.ar    1  UNL1        0.0830
     17 N         140.9411  140.2529  167.3530 N.ar    1  UNL1       -0.2877
     18 C         141.6544  139.9921  166.0594 C.ar    1  UNL1        0.0655
     19 C         141.7706  141.0809  165.0343 C.ar    1  UNL1        0.0184
     20 C         142.4839  140.8201  163.7407 C.ar    1  UNL1        0.0129
     21 C         143.0811  139.4705  163.4724 C.ar    1  UNL1        0.0578
     22 CL        143.7944  139.2098  162.1789 Cl      1  UNL1       -0.0822
     23 C         142.9649  138.3817  164.4975 C.ar    1  UNL1        0.0129
     24 C         142.2516  138.6425  165.7911 C.ar    1  UNL1        0.0184
     25 C         138.5150  140.5402  160.9002 C.3     1  UNL1        0.0991
     26 C         141.4951  138.6316  158.1205 C.3     1  UNL1        0.0251
     27 C         141.9574  139.6132  159.1563 C.3     1  UNL1        0.0217
     28 C         140.9640  140.2494  160.0829 C.3     1  UNL1        0.0727
     29 N         139.5084  139.9040  159.9736 N.3     1  UNL1       -0.2689
     30 C         139.0462  138.9224  158.9379 C.3     1  UNL1        0.0727
     31 C         140.0395  138.2862  158.0114 C.3     1  UNL1        0.0217
     32 C         143.7212  135.8795  156.3259 C.ar    1  UNL1        0.0500
     33 C         144.4752  136.7230  155.3409 C.ar    1  UNL1        0.0147
     34 C         144.2358  138.2026  155.2825 C.ar    1  UNL1        0.0009
     35 C         143.2424  138.8388  156.2090 C.ar    1  UNL1       -0.0042
     36 C         142.4885  137.9954  157.1940 C.ar    1  UNL1       -0.0212
     37 C         142.7278  136.5157  157.2525 C.ar    1  UNL1        0.0104
     38 C         143.5929  132.0208  155.4072 C.3     1  UNL1        0.0949
     39 C         143.3535  133.5005  155.3487 C.2     1  UNL1        0.2266
     40 O         142.5070  134.0806  154.2547 O.2     1  UNL1       -0.2748
     41 N         143.9606  134.3999  156.3843 N.am    1  UNL1       -0.2839
     42 H         144.5161  134.0191  157.1024 H       1  UNL1        0.1549
@<TRIPOS>BOND
     1    38    39    1
     2    39    40    2
     3    39    41   am
     4    41    32    1
     5    32    33   ar
     6    33    34   ar
     7    34    35   ar
     8    35    36   ar
     9    36    26    1
    10    26    27    1
    11    27    28    1
    12    28    29    1
    13    29    25    1
    14    25     1    1
    15     1     2   ar
    16     2     3   ar
    17     3     4   ar
    18     4     7    1
    19     7     8    2
    20     7     9    1
    21     9    10   ar
    22    10    11   ar
    23    11    12   ar
    24    12    13   ar
    25    13    14   ar
    26    14    15   ar
    27    15    16   ar
    28    16    17   ar
    29    17    18    1
    30    18    19   ar
    31    19    20   ar
    32    20    21   ar
    33    21    22    1
    34    21    23   ar
    35    23    24   ar
    36     4     5   ar
    37     5     6   ar
    38    29    30    1
    39    30    31    1
    40    36    37   ar
    41    37    32   ar
    42    31    26    1
    43     6     1   ar
    44    17     9   ar
    45    24    18   ar
    46    16    11   ar
    47    41    42    1
@<TRIPOS>MOLECULE
*****
 42 47 0 0 0
SMALL
GASTEIGER

@<TRIPOS>ATOM
      1 C         138.4122  138.8464  162.4976 C.ar    1  UNL1       -0.0061
      2 C         138.0393  140.1333  163.1720 C.ar    1  UNL1       -0.0028
      3 C         138.0762  140.2341  164.6682 C.ar    1  UNL1        0.0030
      4 C         138.4860  139.0481  165.4900 C.ar    1  UNL1        0.0420
      5 C         138.8590  137.7612  164.8155 C.ar    1  UNL1        0.0030
      6 C         138.8221  137.6603  163.3194 C.ar    1  UNL1       -0.0028
      7 C         138.5230  139.1489  166.9861 C.2     1  UNL1        0.2297
      8 O         137.5078  138.4164  167.8124 O.2     1  UNL1       -0.2833
      9 C         139.5751  139.9822  167.6559 C.ar    1  UNL1        0.1873
     10 N         139.4492  140.6558  168.9902 N.ar    1  UNL1       -0.2235
     11 C         140.7341  141.3781  169.2680 C.ar    1  UNL1        0.0991
     12 C         141.1852  142.2133  170.4294 C.ar    1  UNL1        0.0206
     13 C         142.5564  142.8213  170.4281 C.ar    1  UNL1        0.0016
     14 C         143.4766  142.5941  169.2655 C.ar    1  UNL1        0.0016
     15 C         143.0255  141.7588  168.1041 C.ar    1  UNL1        0.0191
     16 C         141.6543  141.1509  168.1054 C.ar    1  UNL1        0.0830
     17 N         140.9379  140.2881  167.1091 N.ar    1  UNL1       -0.2877
     18 C         141.4879  139.8146  165.7963 C.ar    1  UNL1        0.0655
     19 C         141.4883  140.7309  164.6088 C.ar    1  UNL1        0.0184
     20 C         142.0383  140.2573  163.2961 C.ar    1  UNL1        0.0129
     21 C         142.5880  138.8673  163.1709 C.ar    1  UNL1        0.0578
     22 CL        143.1380  138.3937  161.8582 Cl      1  UNL1       -0.0822
     23 C         142.5877  137.9509  164.3584 C.ar    1  UNL1        0.0129
     24 C         142.0377  138.4245  165.6711 C.ar    1  UNL1        0.0184
     25 C         138.3753  138.7455  161.0014 C.3     1  UNL1        0.0991
     26 C         140.2553  141.9657  158.4822 C.3     1  UNL1        0.0251
     27 C         141.1163  140.9232  159.1320 C.3     1  UNL1        0.0217
     28 C         140.4896  139.8498  159.9717 C.3     1  UNL1        0.0727
     29 N         139.0020  139.8189  160.1617 N.3     1  UNL1       -0.2689
     30 C         138.1411  140.8613  159.5120 C.3     1  UNL1        0.0727
     31 C         138.7677  141.9347  158.6723 C.3     1  UNL1        0.0217
     32 C         140.9423  145.5014  156.8159 C.ar    1  UNL1        0.0500
     33 C         142.1353  145.1858  155.9631 C.ar    1  UNL1        0.0147
     34 C         142.7016  143.7969  155.9500 C.ar    1  UNL1        0.0009
     35 C         142.0749  142.7235  156.7897 C.ar    1  UNL1       -0.0042
     36 C         140.8820  143.0391  157.6425 C.ar    1  UNL1       -0.0212
     37 C         140.3156  144.4280  157.6556 C.ar    1  UNL1        0.0104
     38 C         138.6197  148.6121  155.9917 C.3     1  UNL1        0.0949
     39 C         139.1860  147.2231  155.9787 C.2     1  UNL1        0.2266
     40 O         138.5622  146.1670  155.1153 O.2     1  UNL1       -0.2748
     41 N         140.3760  146.8903  156.8290 N.am    1  UNL1       -0.2839
     42 H         140.7854  147.5835  157.3956 H       1  UNL1        0.1549
@<TRIPOS>BOND
     1    38    39    1
     2    39    40    2
     3    39    41   am
     4    41    32    1
     5    32    33   ar
     6    33    34   ar
     7    34    35   ar
     8    35    36   ar
     9    36    26    1
    10    26    27    1
    11    27    28    1
    12    28    29    1
    13    29    25    1
    14    25     1    1
    15     1     2   ar
    16     2     3   ar
    17     3     4   ar
    18     4     7    1
    19     7     8    2
    20     7     9    1
    21     9    10   ar
    22    10    11   ar
    23    11    12   ar
    24    12    13   ar
    25    13    14   ar
    26    14    15   ar
    27    15    16   ar
    28    16    17   ar
    29    17    18    1
    30    18    19   ar
    31    19    20   ar
    32    20    21   ar
    33    21    22    1
    34    21    23   ar
    35    23    24   ar
    36     4     5   ar
    37     5     6   ar
    38    29    30    1
    39    30    31    1
    40    36    37   ar
    41    37    32   ar
    42    31    26    1
    43     6     1   ar
    44    17     9   ar
    45    24    18   ar
    46    16    11   ar
    47    41    42    1
@<TRIPOS>MOLECULE
*****
 42 47 0 0 0
SMALL
GASTEIGER

@<TRIPOS>ATOM
      1 C         139.9241  140.9081  161.7494 C.ar    1  UNL1       -0.0061
      2 C         138.6404  141.4356  162.3184 C.ar    1  UNL1       -0.0028
      3 C         138.2458  141.0916  163.7241 C.ar    1  UNL1        0.0030
      4 C         139.1349  140.2202  164.5608 C.ar    1  UNL1        0.0420
      5 C         140.4187  139.6927  163.9917 C.ar    1  UNL1        0.0030
      6 C         140.8132  140.0367  162.5861 C.ar    1  UNL1       -0.0028
      7 C         138.7403  139.8762  165.9665 C.2     1  UNL1        0.2297
      8 O         137.5490  139.0002  166.2180 O.2     1  UNL1       -0.2833
      9 C         139.5371  140.4083  167.1207 C.ar    1  UNL1        0.1873
     10 N         139.7157  139.7397  168.4514 N.ar    1  UNL1       -0.2235
     11 C         140.5841  140.6206  169.3000 C.ar    1  UNL1        0.0991
     12 C         141.0951  140.4748  170.7027 C.ar    1  UNL1        0.0206
     13 C         141.9640  141.5421  171.2990 C.ar    1  UNL1        0.0016
     14 C         142.3221  142.7552  170.4926 C.ar    1  UNL1        0.0016
     15 C         141.8111  142.9010  169.0899 C.ar    1  UNL1        0.0191
     16 C         140.9421  141.8336  168.4936 C.ar    1  UNL1        0.0830
     17 N         140.2950  141.7024  167.1467 N.ar    1  UNL1       -0.2877
     18 C         140.3893  142.6918  166.0232 C.ar    1  UNL1        0.0655
     19 C         139.2728  143.6646  165.7847 C.ar    1  UNL1        0.0184
     20 C         139.3671  144.6539  164.6611 C.ar    1  UNL1        0.0129
     21 C         140.5780  144.6704  163.7760 C.ar    1  UNL1        0.0578
     22 CL        140.6723  145.6597  162.6524 Cl      1  UNL1       -0.0822
     23 C         141.6946  143.6976  164.0144 C.ar    1  UNL1        0.0129
     24 C         141.6003  142.7083  165.1380 C.ar    1  UNL1        0.0184
     25 C         140.3187  141.2521  160.3437 C.3     1  UNL1        0.0991
     26 C         141.4681  137.9882  157.4668 C.3     1  UNL1        0.0251
     27 C         142.5261  138.8672  158.0655 C.3     1  UNL1        0.0217
     28 C         142.1429  139.9551  159.0245 C.3     1  UNL1        0.0727
     29 N         140.7019  140.1641  159.3847 N.3     1  UNL1       -0.2689
     30 C         139.6440  139.2852  158.7860 C.3     1  UNL1        0.0727
     31 C         140.0272  138.1973  157.8271 C.3     1  UNL1        0.0217
     32 C         143.3122  134.8353  155.9149 C.ar    1  UNL1        0.0500
     33 C         142.6175  134.7244  154.5900 C.ar    1  UNL1        0.0147
     34 C         141.5398  135.7014  154.2241 C.ar    1  UNL1        0.0009
     35 C         141.1567  136.7893  155.1831 C.ar    1  UNL1       -0.0042
     36 C         141.8513  136.9003  156.5079 C.ar    1  UNL1       -0.0212
     37 C         142.9291  135.9232  156.8739 C.ar    1  UNL1        0.0104
     38 C         145.1056  131.5554  157.2476 C.3     1  UNL1        0.0949
     39 C         144.0278  132.5324  156.8817 C.2     1  UNL1        0.2266
     40 O         142.5880  132.1836  157.1167 O.2     1  UNL1       -0.2748
     41 N         144.3899  133.8582  156.2808 N.am    1  UNL1       -0.2839
     42 H         145.3349  134.0872  156.1266 H       1  UNL1        0.1549
@<TRIPOS>BOND
     1    38    39    1
     2    39    40    2
     3    39    41   am
     4    41    32    1
     5    32    33   ar
     6    33    34   ar
     7    34    35   ar
     8    35    36   ar
     9    36    26    1
    10    26    27    1
    11    27    28    1
    12    28    29    1
    13    29    25    1
    14    25     1    1
    15     1     2   ar
    16     2     3   ar
    17     3     4   ar
    18     4     7    1
    19     7     8    2
    20     7     9    1
    21     9    10   ar
    22    10    11   ar
    23    11    12   ar
    24    12    13   ar
    25    13    14   ar
    26    14    15   ar
    27    15    16   ar
    28    16    17   ar
    29    17    18    1
    30    18    19   ar
    31    19    20   ar
    32    20    21   ar
    33    21    22    1
    34    21    23   ar
    35    23    24   ar
    36     4     5   ar
    37     5     6   ar
    38    29    30    1
    39    30    31    1
    40    36    37   ar
    41    37    32   ar
    42    31    26    1
    43     6     1   ar
    44    17     9   ar
    45    24    18   ar
    46    16    11   ar
    47    41    42    1
@<TRIPOS>MOLECULE
*****
 42 47 0 0 0
SMALL
GASTEIGER

@<TRIPOS>ATOM
      1 C         143.6699  142.0762  162.0322 C.ar    1  UNL1       -0.0061
      2 C         142.6308  141.0314  161.7520 C.ar    1  UNL1       -0.0028
      3 C         142.1784  140.1110  162.8466 C.ar    1  UNL1        0.0030
      4 C         142.7652  140.2355  164.2215 C.ar    1  UNL1        0.0420
      5 C         143.8043  141.2804  164.5017 C.ar    1  UNL1        0.0030
      6 C         144.2566  142.2008  163.4070 C.ar    1  UNL1       -0.0028
      7 C         142.3128  139.3151  165.3161 C.2     1  UNL1        0.2297
      8 O         142.1491  137.8492  165.0436 O.2     1  UNL1       -0.2833
      9 C         142.0242  139.8607  166.6833 C.ar    1  UNL1        0.1873
     10 N         142.6556  139.4056  167.9656 N.ar    1  UNL1       -0.2235
     11 C         142.0752  140.2207  169.0830 C.ar    1  UNL1        0.0991
     12 C         142.3204  140.2137  170.5628 C.ar    1  UNL1        0.0206
     13 C         141.5754  141.1656  171.4509 C.ar    1  UNL1        0.0016
     14 C         140.5852  142.1245  170.8592 C.ar    1  UNL1        0.0016
     15 C         140.3400  142.1315  169.3795 C.ar    1  UNL1        0.0191
     16 C         141.0850  141.1796  168.4913 C.ar    1  UNL1        0.0830
     17 N         141.0535  140.9571  167.0083 N.ar    1  UNL1       -0.2877
     18 C         140.2010  141.7005  166.0231 C.ar    1  UNL1        0.0655
     19 C         140.6103  143.0664  165.5576 C.ar    1  UNL1        0.0184
     20 C         139.7578  143.8098  164.5725 C.ar    1  UNL1        0.0129
     21 C         138.4958  143.1873  164.0528 C.ar    1  UNL1        0.0578
     22 CL        137.6433  143.9307  163.0676 Cl      1  UNL1       -0.0822
     23 C         138.0865  141.8214  164.5183 C.ar    1  UNL1        0.0129
     24 C         138.9390  141.0780  165.5034 C.ar    1  UNL1        0.0184
     25 C         144.1223  142.9967  160.9375 C.3     1  UNL1        0.0991
     26 C         141.1391  144.6164  157.9834 C.3     1  UNL1        0.0251
     27 C         140.9558  144.8706  159.4503 C.3     1  UNL1        0.0217
     28 C         141.9502  144.3307  160.4350 C.3     1  UNL1        0.0727
     29 N         143.1279  143.5366  159.9528 N.3     1  UNL1       -0.2689
     30 C         143.3111  143.2824  158.4859 C.3     1  UNL1        0.0727
     31 C         142.3167  143.8223  157.5012 C.3     1  UNL1        0.0217
     32 C         139.1616  147.1536  155.6592 C.ar    1  UNL1        0.0500
     33 C         138.1558  146.2360  155.0292 C.ar    1  UNL1        0.0147
     34 C         138.1446  144.7787  155.3840 C.ar    1  UNL1        0.0009
     35 C         139.1390  144.2388  156.3688 C.ar    1  UNL1       -0.0042
     36 C         140.1447  145.1563  156.9987 C.ar    1  UNL1       -0.0212
     37 C         140.1560  146.6137  156.6439 C.ar    1  UNL1        0.0104
     38 C         138.6677  151.0823  155.9269 C.3     1  UNL1        0.0949
     39 C         138.6564  149.6249  156.2818 C.2     1  UNL1        0.2266
     40 O         138.1287  149.1814  157.6140 O.2     1  UNL1       -0.2748
     41 N         139.1728  148.6110  155.3044 N.am    1  UNL1       -0.2839
     42 H         139.5192  148.9020  154.4300 H       1  UNL1        0.1549
@<TRIPOS>BOND
     1    38    39    1
     2    39    40    2
     3    39    41   am
     4    41    32    1
     5    32    33   ar
     6    33    34   ar
     7    34    35   ar
     8    35    36   ar
     9    36    26    1
    10    26    27    1
    11    27    28    1
    12    28    29    1
    13    29    25    1
    14    25     1    1
    15     1     2   ar
    16     2     3   ar
    17     3     4   ar
    18     4     7    1
    19     7     8    2
    20     7     9    1
    21     9    10   ar
    22    10    11   ar
    23    11    12   ar
    24    12    13   ar
    25    13    14   ar
    26    14    15   ar
    27    15    16   ar
    28    16    17   ar
    29    17    18    1
    30    18    19   ar
    31    19    20   ar
    32    20    21   ar
    33    21    22    1
    34    21    23   ar
    35    23    24   ar
    36     4     5   ar
    37     5     6   ar
    38    29    30    1
    39    30    31    1
    40    36    37   ar
    41    37    32   ar
    42    31    26    1
    43     6     1   ar
    44    17     9   ar
    45    24    18   ar
    46    16    11   ar
    47    41    42    1
@<TRIPOS>MOLECULE
*****
 42 47 0 0 0
SMALL
GASTEIGER

@<TRIPOS>ATOM
      1 C         142.1042  138.1475  162.1991 C.ar    1  UNL1       -0.0061
      2 C         143.4298  138.7534  162.5533 C.ar    1  UNL1       -0.0028
      3 C         143.8385  138.8754  163.9914 C.ar    1  UNL1        0.0030
      4 C         142.9214  138.3915  165.0753 C.ar    1  UNL1        0.0420
      5 C         141.5957  137.7856  164.7210 C.ar    1  UNL1        0.0030
      6 C         141.1871  137.6636  163.2829 C.ar    1  UNL1       -0.0028
      7 C         143.3300  138.5135  166.5134 C.2     1  UNL1        0.2297
      8 O         144.4336  137.6540  167.0550 O.2     1  UNL1       -0.2833
      9 C         142.6350  139.4949  167.4099 C.ar    1  UNL1        0.1873
     10 N         142.3182  139.2918  168.8619 N.ar    1  UNL1       -0.2235
     11 C         141.6221  140.5231  169.3612 C.ar    1  UNL1        0.0991
     12 C         141.0770  140.8910  170.7093 C.ar    1  UNL1        0.0206
     13 C         140.4184  142.2230  170.9140 C.ar    1  UNL1        0.0016
     14 C         140.3049  143.1872  169.7705 C.ar    1  UNL1        0.0016
     15 C         140.8501  142.8193  168.4224 C.ar    1  UNL1        0.0191
     16 C         141.5087  141.4873  168.2178 C.ar    1  UNL1        0.0830
     17 N         142.1346  140.8518  167.0118 N.ar    1  UNL1       -0.2877
     18 C         142.2415  141.4655  165.6473 C.ar    1  UNL1        0.0655
     19 C         143.5020  142.1674  165.2371 C.ar    1  UNL1        0.0184
     20 C         143.6089  142.7811  163.8726 C.ar    1  UNL1        0.0129
     21 C         142.4551  142.6929  162.9181 C.ar    1  UNL1        0.0578
     22 CL        142.5619  143.3066  161.5536 Cl      1  UNL1       -0.0822
     23 C         141.1945  141.9911  163.3282 C.ar    1  UNL1        0.0129
     24 C         141.0876  141.3773  164.6928 C.ar    1  UNL1        0.0184
     25 C         141.6955  138.0255  160.7609 C.3     1  UNL1        0.0991
     26 C         142.0656  141.5664  158.0086 C.3     1  UNL1        0.0251
     27 C         140.8655  141.4301  158.8981 C.3     1  UNL1        0.0217
     28 C         140.7421  140.2498  159.8155 C.3     1  UNL1        0.0727
     29 N         141.8189  139.2058  159.8435 N.3     1  UNL1       -0.2689
     30 C         143.0190  139.3421  158.9540 C.3     1  UNL1        0.0727
     31 C         143.1423  140.5224  158.0366 C.3     1  UNL1        0.0217
     32 C         141.5888  145.2022  156.4908 C.ar    1  UNL1        0.0500
     33 C         142.4357  145.1073  155.2563 C.ar    1  UNL1        0.0147
     34 C         143.1592  143.8321  154.9394 C.ar    1  UNL1        0.0009
     35 C         143.0359  142.6518  155.8568 C.ar    1  UNL1       -0.0042
     36 C         142.1890  142.7467  157.0912 C.ar    1  UNL1       -0.0212
     37 C         141.4654  144.0219  157.4082 C.ar    1  UNL1        0.0104
     38 C         138.8633  148.0859  156.4145 C.3     1  UNL1        0.0949
     39 C         139.5868  146.8107  156.0975 C.2     1  UNL1        0.2266
     40 O         139.0319  145.8689  155.0704 O.2     1  UNL1       -0.2748
     41 N         140.8653  146.4773  156.8077 N.am    1  UNL1       -0.2839
     42 H         141.2295  147.0954  157.4819 H       1  UNL1        0.1549
@<TRIPOS>BOND
     1    38    39    1
     2    39    40    2
     3    39    41   am
     4    41    32    1
     5    32    33   ar
     6    33    34   ar
     7    34    35   ar
     8    35    36   ar
     9    36    26    1
    10    26    27    1
    11    27    28    1
    12    28    29    1
    13    29    25    1
    14    25     1    1
    15     1     2   ar
    16     2     3   ar
    17     3     4   ar
    18     4     7    1
    19     7     8    2
    20     7     9    1
    21     9    10   ar
    22    10    11   ar
    23    11    12   ar
    24    12    13   ar
    25    13    14   ar
    26    14    15   ar
    27    15    16   ar
    28    16    17   ar
    29    17    18    1
    30    18    19   ar
    31    19    20   ar
    32    20    21   ar
    33    21    22    1
    34    21    23   ar
    35    23    24   ar
    36     4     5   ar
    37     5     6   ar
    38    29    30    1
    39    30    31    1
    40    36    37   ar
    41    37    32   ar
    42    31    26    1
    43     6     1   ar
    44    17     9   ar
    45    24    18   ar
    46    16    11   ar
    47    41    42    1
@<TRIPOS>MOLECULE
*****
 42 47 0 0 0
SMALL
GASTEIGER

@<TRIPOS>ATOM
      1 C         143.1421  140.2590  162.1205 C.ar    1  UNL1       -0.0061
      2 C         144.4380  140.2822  162.8756 C.ar    1  UNL1       -0.0028
      3 C         144.4659  139.9118  164.3289 C.ar    1  UNL1        0.0030
      4 C         143.1980  139.5181  165.0270 C.ar    1  UNL1        0.0420
      5 C         141.9021  139.4949  164.2719 C.ar    1  UNL1        0.0030
      6 C         141.8742  139.8653  162.8186 C.ar    1  UNL1       -0.0028
      7 C         143.2259  139.1477  166.4803 C.2     1  UNL1        0.2297
      8 O         144.0138  137.9552  166.9353 O.2     1  UNL1       -0.2833
      9 C         142.4659  139.9699  167.4786 C.ar    1  UNL1        0.1873
     10 N         141.8479  139.4650  168.7486 N.ar    1  UNL1       -0.2235
     11 C         141.1905  140.6243  169.4371 C.ar    1  UNL1        0.0991
     12 C         140.4265  140.7255  170.7239 C.ar    1  UNL1        0.0206
     13 C         139.8742  142.0482  171.1661 C.ar    1  UNL1        0.0016
     14 C         140.0860  143.2696  170.3214 C.ar    1  UNL1        0.0016
     15 C         140.8500  143.1683  169.0346 C.ar    1  UNL1        0.0191
     16 C         141.4023  141.8457  168.5924 C.ar    1  UNL1        0.0830
     17 N         142.1905  141.4412  167.3820 N.ar    1  UNL1       -0.2877
     18 C         142.6267  142.3488  166.2703 C.ar    1  UNL1        0.0655
     19 C         141.6444  142.7729  165.2191 C.ar    1  UNL1        0.0184
     20 C         142.0807  143.6805  164.1073 C.ar    1  UNL1        0.0129
     21 C         143.4993  144.1639  164.0467 C.ar    1  UNL1        0.0578
     22 CL        143.9355  145.0715  162.9350 Cl      1  UNL1       -0.0822
     23 C         144.4817  143.7398  165.0979 C.ar    1  UNL1        0.0129
     24 C         144.0455  142.8322  166.2097 C.ar    1  UNL1        0.0184
     25 C         143.1142  140.6294  160.6671 C.3     1  UNL1        0.0991
     26 C         142.8210  137.4152  157.5313 C.3     1  UNL1        0.0251
     27 C         142.9378  138.8537  157.1223 C.3     1  UNL1        0.0217
     28 C         143.0356  139.9251  158.1675 C.3     1  UNL1        0.0727
     29 N         143.0164  139.5580  159.6219 N.3     1  UNL1       -0.2689
     30 C         142.8996  138.1196  160.0308 C.3     1  UNL1        0.0727
     31 C         142.8019  137.0482  158.9856 C.3     1  UNL1        0.0217
     32 C         143.4941  134.0530  155.5333 C.ar    1  UNL1        0.0500
     33 C         142.5278  134.2011  154.3955 C.ar    1  UNL1        0.0147
     34 C         141.6594  135.4206  154.3030 C.ar    1  UNL1        0.0009
     35 C         141.7571  136.4920  155.3483 C.ar    1  UNL1       -0.0042
     36 C         142.7233  136.3439  156.4860 C.ar    1  UNL1       -0.0212
     37 C         143.5918  135.1243  156.5786 C.ar    1  UNL1        0.0104
     38 C         144.7521  130.4073  156.4696 C.3     1  UNL1        0.0949
     39 C         143.8836  131.6268  156.3772 C.2     1  UNL1        0.2266
     40 O         142.5362  131.6397  157.0361 O.2     1  UNL1       -0.2748
     41 N         144.3626  132.8335  155.6258 N.am    1  UNL1       -0.2839
     42 H         145.2469  132.8250  155.1933 H       1  UNL1        0.1549
@<TRIPOS>BOND
     1    38    39    1
     2    39    40    2
     3    39    41   am
     4    41    32    1
     5    32    33   ar
     6    33    34   ar
     7    34    35   ar
     8    35    36   ar
     9    36    26    1
    10    26    27    1
    11    27    28    1
    12    28    29    1
    13    29    25    1
    14    25     1    1
    15     1     2   ar
    16     2     3   ar
    17     3     4   ar
    18     4     7    1
    19     7     8    2
    20     7     9    1
    21     9    10   ar
    22    10    11   ar
    23    11    12   ar
    24    12    13   ar
    25    13    14   ar
    26    14    15   ar
    27    15    16   ar
    28    16    17   ar
    29    17    18    1
    30    18    19   ar
    31    19    20   ar
    32    20    21   ar
    33    21    22    1
    34    21    23   ar
    35    23    24   ar
    36     4     5   ar
    37     5     6   ar
    38    29    30    1
    39    30    31    1
    40    36    37   ar
    41    37    32   ar
    42    31    26    1
    43     6     1   ar
    44    17     9   ar
    45    24    18   ar
    46    16    11   ar
    47    41    42    1
@<TRIPOS>MOLECULE
*****
 42 47 0 0 0
SMALL
GASTEIGER

@<TRIPOS>ATOM
      1 C         143.8236  141.7032  161.8685 C.ar    1  UNL1       -0.0061
      2 C         142.5685  140.9022  161.6866 C.ar    1  UNL1       -0.0028
      3 C         142.0699  140.0266  162.7979 C.ar    1  UNL1        0.0030
      4 C         142.8265  139.9521  164.0910 C.ar    1  UNL1        0.0420
      5 C         144.0816  140.7532  164.2728 C.ar    1  UNL1        0.0030
      6 C         144.5801  141.6287  163.1615 C.ar    1  UNL1       -0.0028
      7 C         142.3280  139.0766  165.2022 C.2     1  UNL1        0.2297
      8 O         142.0069  137.6359  164.9353 O.2     1  UNL1       -0.2833
      9 C         142.1506  139.6418  166.5803 C.ar    1  UNL1        0.1873
     10 N         142.8610  139.1836  167.8194 N.ar    1  UNL1       -0.2235
     11 C         142.3811  140.0230  168.9661 C.ar    1  UNL1        0.0991
     12 C         142.7310  140.0239  170.4247 C.ar    1  UNL1        0.0206
     13 C         142.0739  141.0018  171.3530 C.ar    1  UNL1        0.0016
     14 C         141.0668  141.9788  170.8227 C.ar    1  UNL1        0.0016
     15 C         140.7169  141.9779  169.3641 C.ar    1  UNL1        0.0191
     16 C         141.3740  141.0000  168.4358 C.ar    1  UNL1        0.0830
     17 N         141.2316  140.7644  166.9613 N.ar    1  UNL1       -0.2877
     18 C         140.3286  141.5189  166.0311 C.ar    1  UNL1        0.0655
     19 C         139.0728  140.8773  165.5201 C.ar    1  UNL1        0.0184
     20 C         138.1698  141.6318  164.5899 C.ar    1  UNL1        0.0129
     21 C         138.5227  143.0281  164.1707 C.ar    1  UNL1        0.0578
     22 CL        137.6197  143.7827  163.2405 Cl      1  UNL1       -0.0822
     23 C         139.7785  143.6699  164.6816 C.ar    1  UNL1        0.0129
     24 C         140.6815  142.9153  165.6118 C.ar    1  UNL1        0.0184
     25 C         144.3222  142.5788  160.7572 C.3     1  UNL1        0.0991
     26 C         141.3976  144.5647  157.9727 C.3     1  UNL1        0.0251
     27 C         142.5214  143.7410  157.4170 C.3     1  UNL1        0.0217
     28 C         143.4962  143.0790  158.3452 C.3     1  UNL1        0.0727
     29 N         143.3473  143.2408  159.8290 N.3     1  UNL1       -0.2689
     30 C         142.2236  144.0644  160.3846 C.3     1  UNL1        0.0727
     31 C         141.2487  144.7264  159.4565 C.3     1  UNL1        0.0217
     32 C         138.8453  145.1120  154.9833 C.ar    1  UNL1        0.0500
     33 C         138.4730  146.5506  155.1883 C.ar    1  UNL1        0.0147
     34 C         139.0756  147.3271  156.3213 C.ar    1  UNL1        0.0009
     35 C         140.0504  146.6652  157.2495 C.ar    1  UNL1       -0.0042
     36 C         140.4227  145.2267  157.0446 C.ar    1  UNL1       -0.0212
     37 C         139.8202  144.4500  155.9115 C.ar    1  UNL1        0.0104
     38 C         136.3613  142.8024  152.9228 C.3     1  UNL1        0.0949
     39 C         136.9639  143.5790  154.0559 C.2     1  UNL1        0.2266
     40 O         136.2876  143.5991  155.3946 O.2     1  UNL1       -0.2748
     41 N         138.2428  144.3354  153.8503 N.am    1  UNL1       -0.2839
     42 H         138.6867  144.3222  152.9716 H       1  UNL1        0.1549
@<TRIPOS>BOND
     1    38    39    1
     2    39    40    2
     3    39    41   am
     4    41    32    1
     5    32    33   ar
     6    33    34   ar
     7    34    35   ar
     8    35    36   ar
     9    36    26    1
    10    26    27    1
    11    27    28    1
    12    28    29    1
    13    29    25    1
    14    25     1    1
    15     1     2   ar
    16     2     3   ar
    17     3     4   ar
    18     4     7    1
    19     7     8    2
    20     7     9    1
    21     9    10   ar
    22    10    11   ar
    23    11    12   ar
    24    12    13   ar
    25    13    14   ar
    26    14    15   ar
    27    15    16   ar
    28    16    17   ar
    29    17    18    1
    30    18    19   ar
    31    19    20   ar
    32    20    21   ar
    33    21    22    1
    34    21    23   ar
    35    23    24   ar
    36     4     5   ar
    37     5     6   ar
    38    29    30    1
    39    30    31    1
    40    36    37   ar
    41    37    32   ar
    42    31    26    1
    43     6     1   ar
    44    17     9   ar
    45    24    18   ar
    46    16    11   ar
    47    41    42    1
@<TRIPOS>MOLECULE
*****
 42 47 0 0 0
SMALL
GASTEIGER

@<TRIPOS>ATOM
      1 C         141.4564  144.3175  161.7491 C.ar    1  UNL1       -0.0061
      2 C         140.9755  144.3706  163.1689 C.ar    1  UNL1       -0.0028
      3 C         141.6940  143.5960  164.2337 C.ar    1  UNL1        0.0030
      4 C         142.8936  142.7683  163.8786 C.ar    1  UNL1        0.0420
      5 C         143.3746  142.7153  162.4587 C.ar    1  UNL1        0.0030
      6 C         142.6560  143.4898  161.3940 C.ar    1  UNL1       -0.0028
      7 C         143.6122  141.9938  164.9433 C.2     1  UNL1        0.2297
      8 O         144.9103  141.3117  164.6276 O.2     1  UNL1       -0.2833
      9 C         143.0327  141.9013  166.3238 C.ar    1  UNL1        0.1873
     10 N         143.5147  142.6447  167.5340 N.ar    1  UNL1       -0.2235
     11 C         142.6493  142.2520  168.6946 C.ar    1  UNL1        0.0991
     12 C         142.6560  142.6650  170.1366 C.ar    1  UNL1        0.0206
     13 C         141.6456  142.0917  171.0855 C.ar    1  UNL1        0.0016
     14 C         140.6287  141.1055  170.5925 C.ar    1  UNL1        0.0016
     15 C         140.6220  140.6925  169.1505 C.ar    1  UNL1        0.0191
     16 C         141.6324  141.2657  168.2015 C.ar    1  UNL1        0.0830
     17 N         141.8693  141.0490  166.7363 N.ar    1  UNL1       -0.2877
     18 C         141.0812  140.1396  165.8408 C.ar    1  UNL1        0.0655
     19 C         139.7157  140.5470  165.3725 C.ar    1  UNL1        0.0184
     20 C         138.9276  139.6376  164.4771 C.ar    1  UNL1        0.0129
     21 C         139.5049  138.3207  164.0499 C.ar    1  UNL1        0.0578
     22 CL        138.7168  137.4113  163.1544 Cl      1  UNL1       -0.0822
     23 C         140.8705  137.9133  164.5182 C.ar    1  UNL1        0.0129
     24 C         141.6586  138.8227  165.4137 C.ar    1  UNL1        0.0184
     25 C         140.7379  145.0921  160.6843 C.3     1  UNL1        0.0991
     26 C         138.4523  142.9176  157.4753 C.3     1  UNL1        0.0251
     27 C         139.2849  144.1146  157.1229 C.3     1  UNL1        0.0217
     28 C         140.0468  144.8394  158.1926 C.3     1  UNL1        0.0727
     29 N         139.9760  144.3673  159.6146 N.3     1  UNL1       -0.2689
     30 C         139.1435  143.1703  159.9669 C.3     1  UNL1        0.0727
     31 C         138.3816  142.4455  158.8972 C.3     1  UNL1        0.0217
     32 C         135.8740  140.4696  155.7118 C.ar    1  UNL1        0.0500
     33 C         136.1668  140.7431  154.2662 C.ar    1  UNL1        0.0147
     34 C         137.2214  141.7413  153.8904 C.ar    1  UNL1        0.0009
     35 C         137.9832  142.4662  154.9601 C.ar    1  UNL1       -0.0042
     36 C         137.6905  142.1928  156.4056 C.ar    1  UNL1       -0.0212
     37 C         136.6358  141.1945  156.7815 C.ar    1  UNL1        0.0104
     38 C         132.3246  138.8887  156.5197 C.3     1  UNL1        0.0949
     39 C         133.3792  139.8871  156.1439 C.2     1  UNL1        0.2266
     40 O         132.9937  141.3010  155.8243 O.2     1  UNL1       -0.2748
     41 N         134.8194  139.4714  156.0876 N.am    1  UNL1       -0.2839
     42 H         135.0724  138.5434  156.2973 H       1  UNL1        0.1549
@<TRIPOS>BOND
     1    38    39    1
     2    39    40    2
     3    39    41   am
     4    41    32    1
     5    32    33   ar
     6    33    34   ar
     7    34    35   ar
     8    35    36   ar
     9    36    26    1
    10    26    27    1
    11    27    28    1
    12    28    29    1
    13    29    25    1
    14    25     1    1
    15     1     2   ar
    16     2     3   ar
    17     3     4   ar
    18     4     7    1
    19     7     8    2
    20     7     9    1
    21     9    10   ar
    22    10    11   ar
    23    11    12   ar
    24    12    13   ar
    25    13    14   ar
    26    14    15   ar
    27    15    16   ar
    28    16    17   ar
    29    17    18    1
    30    18    19   ar
    31    19    20   ar
    32    20    21   ar
    33    21    22    1
    34    21    23   ar
    35    23    24   ar
    36     4     5   ar
    37     5     6   ar
    38    29    30    1
    39    30    31    1
    40    36    37   ar
    41    37    32   ar
    42    31    26    1
    43     6     1   ar
    44    17     9   ar
    45    24    18   ar
    46    16    11   ar
    47    41    42    1
@<TRIPOS>MOLECULE
*****
 42 47 0 0 0
SMALL
GASTEIGER

@<TRIPOS>ATOM
      1 C         143.4839  141.5954  159.4972 C.ar    1  UNL1       -0.0061
      2 C         142.5621  142.7768  159.5635 C.ar    1  UNL1       -0.0028
      3 C         142.0560  143.2596  160.8905 C.ar    1  UNL1        0.0030
      4 C         142.4716  142.5609  162.1511 C.ar    1  UNL1        0.0420
      5 C         143.3935  141.3794  162.0846 C.ar    1  UNL1        0.0030
      6 C         143.8996  140.8966  160.7577 C.ar    1  UNL1       -0.0028
      7 C         141.9655  143.0436  163.4780 C.2     1  UNL1        0.2297
      8 O         142.3062  144.4250  163.9531 O.2     1  UNL1       -0.2833
      9 C         141.1188  142.1450  164.3298 C.ar    1  UNL1        0.1873
     10 N         141.2220  141.9865  165.8178 N.ar    1  UNL1       -0.2235
     11 C         140.1872  140.9906  166.2508 C.ar    1  UNL1        0.0991
     12 C         139.8253  140.4409  167.5986 C.ar    1  UNL1        0.0206
     13 C         138.7206  139.4342  167.7260 C.ar    1  UNL1        0.0016
     14 C         137.9778  138.9773  166.5056 C.ar    1  UNL1        0.0016
     15 C         138.3397  139.5270  165.1577 C.ar    1  UNL1        0.0191
     16 C         139.4444  140.5337  165.0303 C.ar    1  UNL1        0.0830
     17 N         140.0202  141.2471  163.8431 N.ar    1  UNL1       -0.2877
     18 C         139.5754  141.0902  162.4192 C.ar    1  UNL1        0.0655
     19 C         138.6542  142.1023  161.8053 C.ar    1  UNL1        0.0184
     20 C         138.2094  141.9454  160.3814 C.ar    1  UNL1        0.0129
     21 C         138.6859  140.7763  159.5713 C.ar    1  UNL1        0.0578
     22 CL        138.2411  140.6194  158.1474 Cl      1  UNL1       -0.0822
     23 C         139.6071  139.7642  160.1851 C.ar    1  UNL1        0.0129
     24 C         140.0519  139.9211  161.6091 C.ar    1  UNL1        0.0184
     25 C         143.9901  141.1126  158.1702 C.3     1  UNL1        0.0991
     26 C         142.9873  136.9602  156.7551 C.3     1  UNL1        0.0251
     27 C         142.6131  137.3906  158.1425 C.3     1  UNL1        0.0217
     28 C         142.9473  138.7747  158.6142 C.3     1  UNL1        0.0727
     29 N         143.6558  139.7285  157.6985 N.3     1  UNL1       -0.2689
     30 C         144.0300  139.2981  156.3111 C.3     1  UNL1        0.0727
     31 C         143.6958  137.9140  155.8394 C.3     1  UNL1        0.0217
     32 C         142.7113  133.0029  156.6377 C.ar    1  UNL1        0.0500
     33 C         141.9846  132.8079  155.3400 C.ar    1  UNL1        0.0147
     34 C         141.5923  133.9969  154.5140 C.ar    1  UNL1        0.0009
     35 C         141.9265  135.3810  154.9857 C.ar    1  UNL1       -0.0042
     36 C         142.6531  135.5761  156.2834 C.ar    1  UNL1       -0.0212
     37 C         143.0455  134.3871  157.1094 C.ar    1  UNL1        0.0104
     38 C         144.7812  129.9055  158.0056 C.3     1  UNL1        0.0949
     39 C         144.3889  131.0946  157.1796 C.2     1  UNL1        0.2266
     40 O         145.2817  131.5642  156.0695 O.2     1  UNL1       -0.2748
     41 N         143.1037  131.8139  157.4636 N.am    1  UNL1       -0.2839
     42 H         142.5176  131.5057  158.1922 H       1  UNL1        0.1549
@<TRIPOS>BOND
     1    38    39    1
     2    39    40    2
     3    39    41   am
     4    41    32    1
     5    32    33   ar
     6    33    34   ar
     7    34    35   ar
     8    35    36   ar
     9    36    26    1
    10    26    27    1
    11    27    28    1
    12    28    29    1
    13    29    25    1
    14    25     1    1
    15     1     2   ar
    16     2     3   ar
    17     3     4   ar
    18     4     7    1
    19     7     8    2
    20     7     9    1
    21     9    10   ar
    22    10    11   ar
    23    11    12   ar
    24    12    13   ar
    25    13    14   ar
    26    14    15   ar
    27    15    16   ar
    28    16    17   ar
    29    17    18    1
    30    18    19   ar
    31    19    20   ar
    32    20    21   ar
    33    21    22    1
    34    21    23   ar
    35    23    24   ar
    36     4     5   ar
    37     5     6   ar
    38    29    30    1
    39    30    31    1
    40    36    37   ar
    41    37    32   ar
    42    31    26    1
    43     6     1   ar
    44    17     9   ar
    45    24    18   ar
    46    16    11   ar
    47    41    42    1
