@<TRIPOS>MOLECULE
*****
 33 37 0 0 0
SMALL
GASTEIGER

@<TRIPOS>ATOM
      1 C         139.0987  141.7102  163.2774 C.ar    1  UNL1        0.0327
      2 C         137.8465  142.3716  162.7829 C.ar    1  UNL1        0.1001
      3 N         137.7707  142.8734  161.3714 N.ar    1  UNL1       -0.2420
      4 C         138.9470  142.7137  160.4544 C.ar    1  UNL1        0.1078
      5 C         140.1992  142.0523  160.9490 C.ar    1  UNL1        0.1207
      6 C         140.2750  141.5505  162.3605 C.ar    1  UNL1        0.0583
      7 C         141.3755  141.8927  160.0320 C.2     1  UNL1        0.3780
      8 N         142.5513  142.8191  159.9369 N.2     1  UNL1       -0.0307
      9 C         143.4851  142.2776  158.8953 C.2     1  UNL1        0.2329
     10 C         144.8031  142.7700  158.3755 C.2     1  UNL1        0.0612
     11 C         145.5224  142.0012  157.3071 C.2     1  UNL1        0.0577
     12 CL        146.8406  142.4935  156.7873 Cl      1  UNL1       -0.0824
     13 C         144.9237  140.7400  156.7585 C.2     1  UNL1       -0.0058
     14 C         143.6056  140.2477  157.2783 C.3     1  UNL1        0.1046
     15 C         142.8863  141.0165  158.3467 C.2     1  UNL1        0.2178
     16 N         141.5825  140.7786  159.0492 N.2     1  UNL1       -0.0346
     17 N         141.5272  140.8891  162.8551 N.pl3   1  UNL1       -0.3071
     18 C         142.6461  141.7206  163.4089 C.3     1  UNL1        0.0921
     19 C         143.8982  141.0592  163.9035 C.3     1  UNL1        0.0369
     20 C         144.0315  139.5662  163.8444 C.3     1  UNL1        0.0542
     21 N         145.2836  138.9049  164.3390 N.3     1  UNL1       -0.3221
     22 C         142.9126  138.7348  163.2905 C.3     1  UNL1        0.0369
     23 C         141.6604  139.3962  162.7959 C.3     1  UNL1        0.0921
     24 H         145.9323  139.6153  164.6780 H       1  UNL1        0.1188
     25 H         145.7174  138.3846  163.5763 H       1  UNL1        0.1188
     26 C         137.7651  138.2228  166.8913 C.3     1  UNL1        0.0310
     27 C         138.5077  139.4646  166.4959 C.ar    1  UNL1       -0.0222
     28 C         139.3262  140.2046  167.5121 C.ar    1  UNL1       -0.0085
     29 C         140.0689  141.4465  167.1167 C.ar    1  UNL1       -0.0222
     30 C         140.8874  142.1864  168.1328 C.3     1  UNL1        0.0310
     31 C         139.9930  141.9483  165.7051 C.ar    1  UNL1       -0.0042
     32 C         139.1745  141.2083  164.6890 C.ar    1  UNL1        0.0021
     33 C         138.4319  139.9665  165.0844 C.ar    1  UNL1       -0.0042
@<TRIPOS>BOND
     1    26    27    1
     2    27    28   ar
     3    28    29   ar
     4    29    30    1
     5    29    31   ar
     6    31    32   ar
     7    32     1    1
     8     1     2   ar
     9     2     3   ar
    10     3     4   ar
    11     4     5   ar
    12     5     7    1
    13     7     8    2
    14     8     9    1
    15     9    10    2
    16    10    11    1
    17    11    12    1
    18    11    13    2
    19    13    14    1
    20    14    15    1
    21    15    16    2
    22     5     6   ar
    23     6    17    1
    24    17    18    1
    25    18    19    1
    26    19    20    1
    27    20    21    1
    28    20    22    1
    29    22    23    1
    30    32    33   ar
    31    33    27   ar
    32     6     1   ar
    33    23    17    1
    34    16     7    1
    35    15     9    1
    36    21    24    1
    37    21    25    1
@<TRIPOS>MOLECULE
*****
 33 37 0 0 0
SMALL
GASTEIGER

@<TRIPOS>ATOM
      1 C         139.0903  141.7133  163.3020 C.ar    1  UNL1        0.0327
      2 C         137.8409  142.3820  162.8104 C.ar    1  UNL1        0.1001
      3 N         137.7683  142.8932  161.4021 N.ar    1  UNL1       -0.2420
      4 C         138.9451  142.7358  160.4855 C.ar    1  UNL1        0.1078
      5 C         140.1945  142.0671  160.9771 C.ar    1  UNL1        0.1207
      6 C         140.2671  141.5559  162.3854 C.ar    1  UNL1        0.0583
      7 C         141.3714  141.9097  160.0604 C.2     1  UNL1        0.3780
      8 N         142.5449  142.8390  159.9647 N.2     1  UNL1       -0.0307
      9 C         143.4801  142.2990  158.9236 C.2     1  UNL1        0.2329
     10 C         144.7970  142.7942  158.4036 C.2     1  UNL1        0.0612
     11 C         145.5184  142.0263  157.3360 C.2     1  UNL1        0.0577
     12 CL        146.8354  142.5215  156.8159 Cl      1  UNL1       -0.0824
     13 C         144.9229  140.7632  156.7883 C.2     1  UNL1       -0.0058
     14 C         143.6059  140.2680  157.3083 C.3     1  UNL1        0.1046
     15 C         142.8846  141.0359  158.3760 C.2     1  UNL1        0.2178
     16 N         141.5813  140.7953  159.0786 N.2     1  UNL1       -0.0346
     17 N         141.5166  140.8871  162.8771 N.pl3   1  UNL1       -0.3071
     18 C         142.6387  141.7116  163.4349 C.3     1  UNL1        0.0921
     19 C         143.8881  141.0429  163.9266 C.3     1  UNL1        0.0369
     20 C         144.0155  139.5498  163.8604 C.3     1  UNL1        0.0542
     21 N         145.2649  138.8811  164.3521 N.3     1  UNL1       -0.3221
     22 C         142.8934  138.7253  163.3026 C.3     1  UNL1        0.0369
     23 C         141.6439  139.3941  162.8109 C.3     1  UNL1        0.0921
     24 H         145.9164  139.5874  164.6945 H       1  UNL1        0.1188
     25 H         145.6967  138.3627  163.5871 H       1  UNL1        0.1188
     26 C         140.8780  142.1502  168.1614 C.3     1  UNL1        0.0310
     27 C         140.0568  141.4205  167.1400 C.ar    1  UNL1       -0.0222
     28 C         139.3083  140.1795  167.5270 C.ar    1  UNL1       -0.0085
     29 C         138.4870  139.4498  166.5057 C.ar    1  UNL1       -0.0222
     30 C         137.7385  138.2089  166.8926 C.3     1  UNL1        0.0310
     31 C         138.4144  139.9611  165.0973 C.ar    1  UNL1       -0.0042
     32 C         139.1629  141.2020  164.7104 C.ar    1  UNL1        0.0021
     33 C         139.9842  141.9317  165.7318 C.ar    1  UNL1       -0.0042
@<TRIPOS>BOND
     1    26    27    1
     2    27    28   ar
     3    28    29   ar
     4    29    30    1
     5    29    31   ar
     6    31    32   ar
     7    32     1    1
     8     1     2   ar
     9     2     3   ar
    10     3     4   ar
    11     4     5   ar
    12     5     7    1
    13     7     8    2
    14     8     9    1
    15     9    10    2
    16    10    11    1
    17    11    12    1
    18    11    13    2
    19    13    14    1
    20    14    15    1
    21    15    16    2
    22     5     6   ar
    23     6    17    1
    24    17    18    1
    25    18    19    1
    26    19    20    1
    27    20    21    1
    28    20    22    1
    29    22    23    1
    30    32    33   ar
    31    33    27   ar
    32     6     1   ar
    33    23    17    1
    34    16     7    1
    35    15     9    1
    36    21    24    1
    37    21    25    1
@<TRIPOS>MOLECULE
*****
 33 37 0 0 0
SMALL
GASTEIGER

@<TRIPOS>ATOM
      1 C         141.9425  140.0327  167.0986 C.ar    1  UNL1        0.0327
      2 C         142.9734  139.0213  167.5039 C.ar    1  UNL1        0.1001
      3 N         143.8479  138.3842  166.4651 N.ar    1  UNL1       -0.2420
      4 C         143.6915  138.7584  165.0209 C.ar    1  UNL1        0.1078
      5 C         142.6606  139.7698  164.6157 C.ar    1  UNL1        0.1207
      6 C         141.7861  140.4069  165.6545 C.ar    1  UNL1        0.0583
      7 C         142.5042  140.1441  163.1715 C.2     1  UNL1        0.3780
      8 N         143.2998  141.1834  162.4389 N.2     1  UNL1       -0.0307
      9 C         142.8121  141.2264  161.0211 C.2     1  UNL1        0.2329
     10 C         143.2251  142.0569  159.8423 C.2     1  UNL1        0.0612
     11 C         142.5412  141.8746  158.5199 C.2     1  UNL1        0.0577
     12 CL        142.9542  142.7051  157.3410 Cl      1  UNL1       -0.0824
     13 C         141.4441  140.8617  158.3762 C.2     1  UNL1       -0.0058
     14 C         141.0311  140.0312  159.5550 C.3     1  UNL1        0.1046
     15 C         141.7150  140.2135  160.8774 C.2     1  UNL1        0.2178
     16 N         141.5248  139.5446  162.2065 N.2     1  UNL1       -0.0346
     17 N         140.7551  141.4184  165.2493 N.pl3   1  UNL1       -0.3071
     18 C         139.3423  140.9865  164.9897 C.3     1  UNL1        0.0921
     19 C         138.3113  141.9978  164.5845 C.3     1  UNL1        0.0369
     20 C         138.6931  143.4411  164.4388 C.3     1  UNL1        0.0542
     21 N         137.6622  144.4525  164.0335 N.3     1  UNL1       -0.3221
     22 C         140.1060  143.8730  164.6983 C.3     1  UNL1        0.0369
     23 C         141.1370  142.8616  165.1035 C.3     1  UNL1        0.0921
     24 H         136.7642  143.9876  163.8996 H       1  UNL1        0.1188
     25 H         137.9476  144.8984  163.1617 H       1  UNL1        0.1188
     26 C         137.9302  139.7551  170.3887 C.3     1  UNL1        0.0310
     27 C         139.0617  140.5311  169.7825 C.ar    1  UNL1       -0.0222
     28 C         139.3187  141.9442  170.2152 C.ar    1  UNL1       -0.0085
     29 C         140.4503  142.7201  169.6090 C.ar    1  UNL1       -0.0222
     30 C         140.7073  144.1331  170.0416 C.3     1  UNL1        0.0310
     31 C         141.3249  142.0829  168.5701 C.ar    1  UNL1       -0.0042
     32 C         141.0679  140.6699  168.1375 C.ar    1  UNL1        0.0021
     33 C         139.9363  139.8939  168.7437 C.ar    1  UNL1       -0.0042
@<TRIPOS>BOND
     1    26    27    1
     2    27    28   ar
     3    28    29   ar
     4    29    30    1
     5    29    31   ar
     6    31    32   ar
     7    32     1    1
     8     1     2   ar
     9     2     3   ar
    10     3     4   ar
    11     4     5   ar
    12     5     7    1
    13     7     8    2
    14     8     9    1
    15     9    10    2
    16    10    11    1
    17    11    12    1
    18    11    13    2
    19    13    14    1
    20    14    15    1
    21    15    16    2
    22     5     6   ar
    23     6    17    1
    24    17    18    1
    25    18    19    1
    26    19    20    1
    27    20    21    1
    28    20    22    1
    29    22    23    1
    30    32    33   ar
    31    33    27   ar
    32     6     1   ar
    33    23    17    1
    34    16     7    1
    35    15     9    1
    36    21    24    1
    37    21    25    1
@<TRIPOS>MOLECULE
*****
 33 37 0 0 0
SMALL
GASTEIGER

@<TRIPOS>ATOM
      1 C         141.9560  140.0125  167.2048 C.ar    1  UNL1        0.0327
      2 C         142.9900  139.0203  167.6479 C.ar    1  UNL1        0.1001
      3 N         143.8810  138.3632  166.6359 N.ar    1  UNL1       -0.2420
      4 C         143.7381  138.6983  165.1808 C.ar    1  UNL1        0.1078
      5 C         142.7042  139.6905  164.7377 C.ar    1  UNL1        0.1207
      6 C         141.8131  140.3476  165.7497 C.ar    1  UNL1        0.0583
      7 C         142.5613  140.0256  163.2826 C.2     1  UNL1        0.3780
      8 N         141.7186  139.2861  162.2861 N.2     1  UNL1       -0.0307
      9 C         141.8725  139.9625  160.9562 C.2     1  UNL1        0.2329
     10 C         141.2798  139.6739  159.6088 C.2     1  UNL1        0.0612
     11 C         141.6250  140.5429  158.4360 C.2     1  UNL1        0.0577
     12 CL        141.0323  140.2543  157.0885 Cl      1  UNL1       -0.0824
     13 C         142.5628  141.7006  158.6105 C.2     1  UNL1       -0.0058
     14 C         143.1554  141.9892  159.9579 C.3     1  UNL1        0.1046
     15 C         142.8103  141.1201  161.1307 C.2     1  UNL1        0.2178
     16 N         143.2359  141.1591  162.5685 N.2     1  UNL1       -0.0346
     17 N         140.7791  141.3399  165.3066 N.pl3   1  UNL1       -0.3071
     18 C         139.3754  140.8882  165.0317 C.3     1  UNL1        0.0921
     19 C         138.3414  141.8803  164.5887 C.3     1  UNL1        0.0369
     20 C         138.7111  143.3244  164.4205 C.3     1  UNL1        0.0542
     21 N         137.6771  144.3166  163.9775 N.3     1  UNL1       -0.3221
     22 C         140.1148  143.7761  164.6954 C.3     1  UNL1        0.0369
     23 C         141.1488  142.7838  165.1385 C.3     1  UNL1        0.0921
     24 H         136.7863  143.8398  163.8375 H       1  UNL1        0.1188
     25 H         137.9730  144.7480  163.1019 H       1  UNL1        0.1188
     26 C         140.6865  144.1629  170.0618 C.3     1  UNL1        0.0310
     27 C         140.4302  142.7449  169.6453 C.ar    1  UNL1       -0.0222
     28 C         139.2827  141.9840  170.2408 C.ar    1  UNL1       -0.0085
     29 C         139.0264  140.5660  169.8242 C.ar    1  UNL1       -0.0222
     30 C         137.8790  139.8052  170.4197 C.3     1  UNL1        0.0310
     31 C         139.9175  139.9088  168.8122 C.ar    1  UNL1       -0.0042
     32 C         141.0649  140.6697  168.2168 C.ar    1  UNL1        0.0021
     33 C         141.3212  142.0877  168.6333 C.ar    1  UNL1       -0.0042
@<TRIPOS>BOND
     1    26    27    1
     2    27    28   ar
     3    28    29   ar
     4    29    30    1
     5    29    31   ar
     6    31    32   ar
     7    32     1    1
     8     1     2   ar
     9     2     3   ar
    10     3     4   ar
    11     4     5   ar
    12     5     7    1
    13     7     8    2
    14     8     9    1
    15     9    10    2
    16    10    11    1
    17    11    12    1
    18    11    13    2
    19    13    14    1
    20    14    15    1
    21    15    16    2
    22     5     6   ar
    23     6    17    1
    24    17    18    1
    25    18    19    1
    26    19    20    1
    27    20    21    1
    28    20    22    1
    29    22    23    1
    30    32    33   ar
    31    33    27   ar
    32     6     1   ar
    33    23    17    1
    34    16     7    1
    35    15     9    1
    36    21    24    1
    37    21    25    1
@<TRIPOS>MOLECULE
*****
 33 37 0 0 0
SMALL
GASTEIGER

@<TRIPOS>ATOM
      1 C         142.4199  142.5443  166.1898 C.ar    1  UNL1        0.0327
      2 C         143.7980  142.9081  166.6570 C.ar    1  UNL1        0.1001
      3 N         144.7657  143.5522  165.7091 N.ar    1  UNL1       -0.2420
      4 C         144.3552  143.8326  164.2938 C.ar    1  UNL1        0.1078
      5 C         142.9770  143.4688  163.8266 C.ar    1  UNL1        0.1207
      6 C         142.0094  142.8247  164.7745 C.ar    1  UNL1        0.0583
      7 C         142.5666  143.7492  162.4113 C.2     1  UNL1        0.3780
      8 N         141.5680  144.7779  161.9703 N.2     1  UNL1       -0.0307
      9 C         141.4668  144.7145  160.4750 C.2     1  UNL1        0.2329
     10 C         140.6433  145.4913  159.4909 C.2     1  UNL1        0.0612
     11 C         140.7558  145.2001  158.0238 C.2     1  UNL1        0.0577
     12 CL        139.9323  145.9769  157.0397 Cl      1  UNL1       -0.0824
     13 C         141.6919  144.1322  157.5407 C.2     1  UNL1       -0.0058
     14 C         142.5155  143.3555  158.5248 C.3     1  UNL1        0.1046
     15 C         142.4029  143.6467  159.9919 C.2     1  UNL1        0.2178
     16 N         143.0826  143.0500  161.1886 N.2     1  UNL1       -0.0346
     17 N         140.6312  142.4608  164.3073 N.pl3   1  UNL1       -0.3071
     18 C         140.4131  141.1998  163.5249 C.3     1  UNL1        0.0921
     19 C         139.0349  140.8359  163.0577 C.3     1  UNL1        0.0369
     20 C         137.8749  141.7332  163.3728 C.3     1  UNL1        0.0542
     21 N         136.4967  141.3693  162.9056 N.3     1  UNL1       -0.3221
     22 C         138.0930  142.9942  164.1552 C.3     1  UNL1        0.0369
     23 C         139.4712  143.3580  164.6225 C.3     1  UNL1        0.0921
     24 H         136.5330  140.4880  162.3934 H       1  UNL1        0.1188
     25 H         136.1402  142.1036  162.2939 H       1  UNL1        0.1188
     26 C         138.7037  139.0373  167.1337 C.3     1  UNL1        0.0310
     27 C         139.5941  140.1466  167.6097 C.ar    1  UNL1       -0.0222
     28 C         139.5168  140.6118  169.0337 C.ar    1  UNL1       -0.0085
     29 C         140.4072  141.7211  169.5097 C.ar    1  UNL1       -0.0222
     30 C         140.3298  142.1863  170.9336 C.3     1  UNL1        0.0310
     31 C         141.3749  142.3653  168.5617 C.ar    1  UNL1       -0.0042
     32 C         141.4522  141.9001  167.1378 C.ar    1  UNL1        0.0021
     33 C         140.5618  140.7908  166.6618 C.ar    1  UNL1       -0.0042
@<TRIPOS>BOND
     1    26    27    1
     2    27    28   ar
     3    28    29   ar
     4    29    30    1
     5    29    31   ar
     6    31    32   ar
     7    32     1    1
     8     1     2   ar
     9     2     3   ar
    10     3     4   ar
    11     4     5   ar
    12     5     7    1
    13     7     8    2
    14     8     9    1
    15     9    10    2
    16    10    11    1
    17    11    12    1
    18    11    13    2
    19    13    14    1
    20    14    15    1
    21    15    16    2
    22     5     6   ar
    23     6    17    1
    24    17    18    1
    25    18    19    1
    26    19    20    1
    27    20    21    1
    28    20    22    1
    29    22    23    1
    30    32    33   ar
    31    33    27   ar
    32     6     1   ar
    33    23    17    1
    34    16     7    1
    35    15     9    1
    36    21    24    1
    37    21    25    1
@<TRIPOS>MOLECULE
*****
 33 37 0 0 0
SMALL
GASTEIGER

@<TRIPOS>ATOM
      1 C         139.5858  142.1060  161.6297 C.ar    1  UNL1        0.0327
      2 C         138.0885  142.1457  161.5492 C.ar    1  UNL1        0.1001
      3 N         137.2673  142.0467  162.8005 N.ar    1  UNL1       -0.2420
      4 C         137.9434  141.9079  164.1323 C.ar    1  UNL1        0.1078
      5 C         139.4407  141.8682  164.2128 C.ar    1  UNL1        0.1207
      6 C         140.2619  141.9672  162.9615 C.ar    1  UNL1        0.0583
      7 C         140.1168  141.7295  165.5446 C.2     1  UNL1        0.3780
      8 N         140.7275  140.4757  166.0970 N.2     1  UNL1       -0.0307
      9 C         141.2890  140.7915  167.4516 C.2     1  UNL1        0.2329
     10 C         142.0063  139.9469  168.4626 C.2     1  UNL1        0.0612
     11 C         142.4599  140.5512  169.7583 C.2     1  UNL1        0.0577
     12 CL        143.1773  139.7066  170.7693 Cl      1  UNL1       -0.0824
     13 C         142.1963  142.0001  170.0431 C.2     1  UNL1       -0.0058
     14 C         141.4790  142.8447  169.0321 C.3     1  UNL1        0.1046
     15 C         141.0253  142.2404  167.7364 C.2     1  UNL1        0.2178
     16 N         140.3009  142.8201  166.5578 N.2     1  UNL1       -0.0346
     17 N         141.7592  141.9275  163.0420 N.pl3   1  UNL1       -0.3071
     18 C         142.4798  140.6142  162.9653 C.3     1  UNL1        0.0921
     19 C         143.9771  140.5744  163.0458 C.3     1  UNL1        0.0369
     20 C         144.7539  141.8480  163.2029 C.3     1  UNL1        0.0542
     21 N         146.2512  141.8083  163.2833 N.3     1  UNL1       -0.3221
     22 C         144.0333  143.1614  163.2795 C.3     1  UNL1        0.0369
     23 C         142.5359  143.2011  163.1990 C.3     1  UNL1        0.0921
     24 H         146.5698  140.8417  163.2150 H       1  UNL1        0.1188
     25 H         146.5545  142.2042  164.1730 H       1  UNL1        0.1188
     26 C         142.1195  139.8107  157.7167 C.3     1  UNL1        0.0310
     27 C         141.6739  141.0573  158.4219 C.ar    1  UNL1       -0.0222
     28 C         142.0496  142.4030  157.8758 C.ar    1  UNL1       -0.0085
     29 C         141.6040  143.6496  158.5810 C.ar    1  UNL1       -0.0222
     30 C         141.9796  144.9952  158.0350 C.3     1  UNL1        0.0310
     31 C         140.7827  143.5506  159.8323 C.ar    1  UNL1       -0.0042
     32 C         140.4071  142.2050  160.3784 C.ar    1  UNL1        0.0021
     33 C         140.8527  140.9584  159.6731 C.ar    1  UNL1       -0.0042
@<TRIPOS>BOND
     1    26    27    1
     2    27    28   ar
     3    28    29   ar
     4    29    30    1
     5    29    31   ar
     6    31    32   ar
     7    32     1    1
     8     1     2   ar
     9     2     3   ar
    10     3     4   ar
    11     4     5   ar
    12     5     7    1
    13     7     8    2
    14     8     9    1
    15     9    10    2
    16    10    11    1
    17    11    12    1
    18    11    13    2
    19    13    14    1
    20    14    15    1
    21    15    16    2
    22     5     6   ar
    23     6    17    1
    24    17    18    1
    25    18    19    1
    26    19    20    1
    27    20    21    1
    28    20    22    1
    29    22    23    1
    30    32    33   ar
    31    33    27   ar
    32     6     1   ar
    33    23    17    1
    34    16     7    1
    35    15     9    1
    36    21    24    1
    37    21    25    1
@<TRIPOS>MOLECULE
*****
 33 37 0 0 0
SMALL
GASTEIGER

@<TRIPOS>ATOM
      1 C         143.4171  141.5706  161.6893 C.ar    1  UNL1        0.0327
      2 C         144.9155  141.6338  161.6598 C.ar    1  UNL1        0.1001
      3 N         145.6904  141.6627  162.9437 N.ar    1  UNL1       -0.2420
      4 C         144.9669  141.6284  164.2573 C.ar    1  UNL1        0.1078
      5 C         143.4686  141.5651  164.2869 C.ar    1  UNL1        0.1207
      6 C         142.6937  141.5362  163.0029 C.ar    1  UNL1        0.0583
      7 C         142.7451  141.5308  165.6004 C.2     1  UNL1        0.3780
      8 N         142.0835  142.6967  166.2734 N.2     1  UNL1       -0.0307
      9 C         141.4857  142.2110  167.5605 C.2     1  UNL1        0.2329
     10 C         140.7131  142.9143  168.6368 C.2     1  UNL1        0.0612
     11 C         140.2327  142.1515  169.8356 C.2     1  UNL1        0.0577
     12 CL        139.4600  142.8548  170.9119 Cl      1  UNL1       -0.0824
     13 C         140.5248  140.6853  169.9581 C.2     1  UNL1       -0.0058
     14 C         141.2974  139.9820  168.8819 C.3     1  UNL1        0.1046
     15 C         141.7779  140.7448  167.6831 C.2     1  UNL1        0.2178
     16 N         142.5562  140.3245  166.4717 N.2     1  UNL1       -0.0346
     17 N         141.1953  141.4730  163.0324 N.pl3   1  UNL1       -0.3071
     18 C         140.3908  142.7389  163.0199 C.3     1  UNL1        0.0921
     19 C         138.8924  142.6757  163.0494 C.3     1  UNL1        0.0369
     20 C         138.1985  141.3465  163.0914 C.3     1  UNL1        0.0542
     21 N         136.7001  141.2833  163.1209 N.3     1  UNL1       -0.3221
     22 C         139.0030  140.0806  163.1039 C.3     1  UNL1        0.0369
     23 C         140.5014  140.1438  163.0744 C.3     1  UNL1        0.0921
     24 H         136.3196  142.2296  163.1074 H       1  UNL1        0.1188
     25 H         136.3966  140.8068  163.9702 H       1  UNL1        0.1188
     26 C         141.0168  144.0809  157.8245 C.3     1  UNL1        0.0310
     27 C         141.4420  142.7969  158.4729 C.ar    1  UNL1       -0.0222
     28 C         141.0923  141.4839  157.8373 C.ar    1  UNL1       -0.0085
     29 C         141.5175  140.1999  158.4857 C.ar    1  UNL1       -0.0222
     30 C         141.1678  138.8870  157.8501 C.3     1  UNL1        0.0310
     31 C         142.2925  140.2288  159.7697 C.ar    1  UNL1       -0.0042
     32 C         142.6422  141.5417  160.4053 C.ar    1  UNL1        0.0021
     33 C         142.2170  142.8257  159.7569 C.ar    1  UNL1       -0.0042
@<TRIPOS>BOND
     1    26    27    1
     2    27    28   ar
     3    28    29   ar
     4    29    30    1
     5    29    31   ar
     6    31    32   ar
     7    32     1    1
     8     1     2   ar
     9     2     3   ar
    10     3     4   ar
    11     4     5   ar
    12     5     7    1
    13     7     8    2
    14     8     9    1
    15     9    10    2
    16    10    11    1
    17    11    12    1
    18    11    13    2
    19    13    14    1
    20    14    15    1
    21    15    16    2
    22     5     6   ar
    23     6    17    1
    24    17    18    1
    25    18    19    1
    26    19    20    1
    27    20    21    1
    28    20    22    1
    29    22    23    1
    30    32    33   ar
    31    33    27   ar
    32     6     1   ar
    33    23    17    1
    34    16     7    1
    35    15     9    1
    36    21    24    1
    37    21    25    1
@<TRIPOS>MOLECULE
*****
 33 37 0 0 0
SMALL
GASTEIGER

@<TRIPOS>ATOM
      1 C         141.0010  139.1708  162.1964 C.ar    1  UNL1        0.0327
      2 C         141.0394  137.6784  162.3424 C.ar    1  UNL1        0.1001
      3 N         141.2043  137.0617  163.6997 N.ar    1  UNL1       -0.2420
      4 C         141.3309  137.9372  164.9111 C.ar    1  UNL1        0.1078
      5 C         141.2924  139.4296  164.7651 C.ar    1  UNL1        0.1207
      6 C         141.1275  140.0464  163.4078 C.ar    1  UNL1        0.0583
      7 C         141.4190  140.3052  165.9764 C.2     1  UNL1        0.3780
      8 N         142.6881  140.6091  166.7160 N.2     1  UNL1       -0.0307
      9 C         142.3520  141.5224  167.8576 C.2     1  UNL1        0.2329
     10 C         143.2000  142.1504  168.9236 C.2     1  UNL1        0.0612
     11 C         142.5712  143.0389  169.9556 C.2     1  UNL1        0.0577
     12 CL        143.4191  143.6669  171.0217 Cl      1  UNL1       -0.0824
     13 C         141.0943  143.2993  169.9216 C.2     1  UNL1       -0.0058
     14 C         140.2464  142.6713  168.8555 C.3     1  UNL1        0.1046
     15 C         140.8752  141.7828  167.8235 C.2     1  UNL1        0.2178
     16 N         140.2986  141.0305  166.6610 N.2     1  UNL1       -0.0346
     17 N         141.0891  141.5388  163.2618 N.pl3   1  UNL1       -0.3071
     18 C         139.7743  142.2606  163.2809 C.3     1  UNL1        0.0921
     19 C         139.7359  143.7530  163.1349 C.3     1  UNL1        0.0369
     20 C         141.0122  144.5236  162.9697 C.3     1  UNL1        0.0542
     21 N         140.9737  146.0159  162.8237 N.3     1  UNL1       -0.3221
     22 C         142.3270  143.8018  162.9506 C.3     1  UNL1        0.0369
     23 C         142.3654  142.3093  163.0966 C.3     1  UNL1        0.0921
     24 H         140.0059  146.3362  162.8588 H       1  UNL1        0.1188
     25 H         141.3873  146.2809  161.9298 H       1  UNL1        0.1188
     26 C         137.9267  140.7908  158.3332 C.3     1  UNL1        0.0310
     27 C         139.2989  140.5976  158.9075 C.ar    1  UNL1       -0.0222
     28 C         140.5062  141.0213  158.1244 C.ar    1  UNL1       -0.0085
     29 C         141.8784  140.8281  158.6987 C.ar    1  UNL1       -0.0222
     30 C         143.0856  141.2518  157.9157 C.3     1  UNL1        0.0310
     31 C         142.0433  140.2113  160.0561 C.ar    1  UNL1       -0.0042
     32 C         140.8361  139.7877  160.8391 C.ar    1  UNL1        0.0021
     33 C         139.4639  139.9808  160.2648 C.ar    1  UNL1       -0.0042
@<TRIPOS>BOND
     1    26    27    1
     2    27    28   ar
     3    28    29   ar
     4    29    30    1
     5    29    31   ar
     6    31    32   ar
     7    32     1    1
     8     1     2   ar
     9     2     3   ar
    10     3     4   ar
    11     4     5   ar
    12     5     7    1
    13     7     8    2
    14     8     9    1
    15     9    10    2
    16    10    11    1
    17    11    12    1
    18    11    13    2
    19    13    14    1
    20    14    15    1
    21    15    16    2
    22     5     6   ar
    23     6    17    1
    24    17    18    1
    25    18    19    1
    26    19    20    1
    27    20    21    1
    28    20    22    1
    29    22    23    1
    30    32    33   ar
    31    33    27   ar
    32     6     1   ar
    33    23    17    1
    34    16     7    1
    35    15     9    1
    36    21    24    1
    37    21    25    1
@<TRIPOS>MOLECULE
*****
 33 37 0 0 0
SMALL
GASTEIGER

@<TRIPOS>ATOM
      1 C         139.6597  139.9200  167.2617 C.ar    1  UNL1        0.0327
      2 C         138.3978  139.1868  167.6080 C.ar    1  UNL1        0.1001
      3 N         137.6333  138.4637  166.5391 N.ar    1  UNL1       -0.2420
      4 C         138.1307  138.4737  165.1240 C.ar    1  UNL1        0.1078
      5 C         139.3926  139.2068  164.7778 C.ar    1  UNL1        0.1207
      6 C         140.1571  139.9300  165.8466 C.ar    1  UNL1        0.0583
      7 C         139.8900  139.2168  163.3627 C.2     1  UNL1        0.3780
      8 N         140.9037  138.2786  162.7778 N.2     1  UNL1       -0.0307
      9 C         141.1013  138.6487  161.3376 C.2     1  UNL1        0.2329
     10 C         141.9778  138.0739  160.2647 C.2     1  UNL1        0.0612
     11 C         141.9628  138.6661  158.8867 C.2     1  UNL1        0.0577
     12 CL        142.8394  138.0912  157.8137 Cl      1  UNL1       -0.0824
     13 C         141.0712  139.8331  158.5816 C.2     1  UNL1       -0.0058
     14 C         140.1947  140.4079  159.6544 C.3     1  UNL1        0.1046
     15 C         140.2097  139.8158  161.0325 C.2     1  UNL1        0.2178
     16 N         139.4611  140.1668  162.2840 N.2     1  UNL1       -0.0346
     17 N         141.4192  140.6632  165.5004 N.pl3   1  UNL1       -0.3071
     18 C         142.7292  139.9328  165.4794 C.3     1  UNL1        0.0921
     19 C         143.9911  140.6659  165.1332 C.3     1  UNL1        0.0369
     20 C         143.9432  142.1295  164.8081 C.3     1  UNL1        0.0542
     21 N         145.2051  142.8627  164.4619 N.3     1  UNL1       -0.3221
     22 C         142.6332  142.8599  164.8291 C.3     1  UNL1        0.0369
     23 C         141.3711  142.1267  165.1753 C.3     1  UNL1        0.0921
     24 H         145.9938  142.2168  164.4960 H       1  UNL1        0.1188
     25 H         145.3545  143.6174  165.1316 H       1  UNL1        0.1188
     26 C         140.5454  144.2283  170.0284 C.3     1  UNL1        0.0310
     27 C         140.8671  142.7973  169.7139 C.ar    1  UNL1       -0.0222
     28 C         141.9535  142.0896  170.4683 C.ar    1  UNL1       -0.0085
     29 C         142.2752  140.6586  170.1539 C.ar    1  UNL1       -0.0222
     30 C         143.3614  139.9509  170.9082 C.3     1  UNL1        0.0310
     31 C         141.5106  139.9354  169.0850 C.ar    1  UNL1       -0.0042
     32 C         140.4243  140.6432  168.3306 C.ar    1  UNL1        0.0021
     33 C         140.1026  142.0741  168.6451 C.ar    1  UNL1       -0.0042
@<TRIPOS>BOND
     1    26    27    1
     2    27    28   ar
     3    28    29   ar
     4    29    30    1
     5    29    31   ar
     6    31    32   ar
     7    32     1    1
     8     1     2   ar
     9     2     3   ar
    10     3     4   ar
    11     4     5   ar
    12     5     7    1
    13     7     8    2
    14     8     9    1
    15     9    10    2
    16    10    11    1
    17    11    12    1
    18    11    13    2
    19    13    14    1
    20    14    15    1
    21    15    16    2
    22     5     6   ar
    23     6    17    1
    24    17    18    1
    25    18    19    1
    26    19    20    1
    27    20    21    1
    28    20    22    1
    29    22    23    1
    30    32    33   ar
    31    33    27   ar
    32     6     1   ar
    33    23    17    1
    34    16     7    1
    35    15     9    1
    36    21    24    1
    37    21    25    1
