@<TRIPOS>MOLECULE
*****
 32 36 0 0 0
SMALL
GASTEIGER

@<TRIPOS>ATOM
      1 C         143.4271  140.7016  159.0050 C.2     1  UNL1        0.0596
      2 C         143.7358  139.7136  160.0907 C.2     1  UNL1        0.0324
      3 C         142.6938  139.3756  161.1154 C.2     1  UNL1        0.0889
      4 N         142.7085  138.4467  162.2931 N.2     1  UNL1       -0.2236
      5 C         141.3671  138.5225  162.9599 C.2     1  UNL1        0.1859
      6 N         140.5233  139.4982  162.1944 N.2     1  UNL1       -0.2387
      7 C         141.3433  140.0254  161.0544 C.3     1  UNL1        0.1679
      8 C         141.0347  141.0134  159.9687 C.2     1  UNL1        0.0164
      9 C         142.0767  141.3514  158.9440 C.2     1  UNL1        0.0690
     10 CL        141.7680  142.3394  157.8582 Cl      1  UNL1       -0.0812
     11 N         146.5530  141.7158  155.9308 N.3     1  UNL1       -0.2698
     12 C         146.4119  142.5590  157.1633 C.3     1  UNL1        0.0938
     13 C         145.3699  142.2209  158.1880 C.3     1  UNL1        0.1081
     14 N         144.4691  141.0397  157.9802 N.pl3   1  UNL1       -0.3040
     15 C         144.6103  140.1964  156.7477 C.3     1  UNL1        0.1081
     16 C         145.6523  140.5345  155.7230 C.3     1  UNL1        0.0938
     17 C         149.0443  141.8003  155.1982 C.3     1  UNL1        0.0188
     18 C         147.5949  142.0538  154.9061 C.3     1  UNL1        0.0722
     19 S         140.9436  137.7569  164.1784 S.3     1  UNL1       -0.0777
     20 C         140.0244  138.3904  165.1802 C.3     1  UNL1        0.0462
     21 C         139.0650  137.4610  164.4977 C.3     1  UNL1        0.0113
     22 C         141.3030  139.0997  165.5149 C.3     1  UNL1        0.0121
     23 C         141.3293  140.1198  166.6143 C.3     1  UNL1        0.0207
     24 C         140.0768  140.4305  167.3792 C.3     1  UNL1        0.0754
     25 C         138.7983  139.7212  167.0445 C.3     1  UNL1        0.0207
     26 C         138.7720  138.7011  165.9451 C.3     1  UNL1        0.0121
     27 N         140.1031  141.4506  168.4786 N.am    1  UNL1       -0.2812
     28 C         140.5940  142.8629  168.3595 C.3     1  UNL1        0.0938
     29 C         140.4373  143.5226  169.6974 C.3     1  UNL1        0.0311
     30 C         139.8496  142.5179  170.6436 C.3     1  UNL1        0.0870
     31 C         139.6430  141.2373  169.8903 C.2     1  UNL1        0.2256
     32 O         139.0759  139.9666  170.4503 O.2     1  UNL1       -0.2749
@<TRIPOS>BOND
     1    17    18    1
     2    18    11    1
     3    11    12    1
     4    12    13    1
     5    13    14    1
     6    14     1    1
     7     1     2    2
     8     2     3    1
     9     3     4    2
    10     4     5    1
    11     5    19    1
    12    19    20    1
    13    20    21    1
    14    20    22    1
    15    22    23    1
    16    23    24    1
    17    24    27    1
    18    27    28    1
    19    28    29    1
    20    29    30    1
    21    30    31    1
    22    31    32    2
    23    24    25    1
    24    25    26    1
    25     5     6    2
    26     6     7    1
    27     7     8    1
    28     8     9    2
    29     9    10    1
    30    14    15    1
    31    15    16    1
    32    16    11    1
    33     9     1    1
    34     7     3    1
    35    26    20    1
    36    31    27   am
@<TRIPOS>MOLECULE
*****
 32 36 0 0 0
SMALL
GASTEIGER

@<TRIPOS>ATOM
      1 C         142.3641  143.3063  158.6879 C.2     1  UNL1        0.0596
      2 C         141.8962  142.3162  159.7131 C.2     1  UNL1        0.0324
      3 C         140.7995  142.6862  160.6672 C.2     1  UNL1        0.0889
      4 N         140.1347  141.9255  161.7759 N.2     1  UNL1       -0.2236
      5 C         139.0950  142.8154  162.3900 C.2     1  UNL1        0.1859
      6 N         139.1172  144.1260  161.6609 N.2     1  UNL1       -0.2387
      7 C         140.1707  144.0462  160.5961 C.3     1  UNL1        0.1679
      8 C         140.6386  145.0362  159.5709 C.2     1  UNL1        0.0164
      9 C         141.7354  144.6662  158.6169 C.2     1  UNL1        0.0690
     10 CL        142.2033  145.6563  157.5917 Cl      1  UNL1       -0.0812
     11 N         145.6544  142.1963  155.8257 N.3     1  UNL1       -0.2698
     12 C         144.2551  142.3897  155.3212 C.3     1  UNL1        0.0938
     13 C         143.1584  142.7597  156.2753 C.3     1  UNL1        0.1081
     14 N         143.4610  142.9363  157.7338 N.pl3   1  UNL1       -0.3040
     15 C         144.8603  142.7429  158.2383 C.3     1  UNL1        0.1081
     16 C         145.9570  142.3729  157.2842 C.3     1  UNL1        0.0938
     17 C         148.1613  141.6925  155.3654 C.3     1  UNL1        0.0188
     18 C         146.7512  141.8263  154.8717 C.3     1  UNL1        0.0722
     19 S         138.1916  142.4574  163.5327 S.3     1  UNL1       -0.0777
     20 C         138.7346  141.7037  164.7105 C.3     1  UNL1        0.0462
     21 C         137.8691  140.6424  164.0986 C.3     1  UNL1        0.0113
     22 C         139.4115  143.0269  164.9134 C.3     1  UNL1        0.0121
     23 C         140.3309  143.2278  166.0815 C.3     1  UNL1        0.0207
     24 C         140.5733  142.1054  167.0467 C.3     1  UNL1        0.0754
     25 C         139.8964  140.7823  166.8438 C.3     1  UNL1        0.0207
     26 C         138.9771  140.5814  165.6757 C.3     1  UNL1        0.0121
     27 N         141.4927  142.3063  168.2148 N.am    1  UNL1       -0.2812
     28 C         142.8366  141.6661  168.3994 C.3     1  UNL1        0.0938
     29 C         143.4040  142.1468  169.7021 C.3     1  UNL1        0.0311
     30 C         142.4108  143.0841  170.3226 C.3     1  UNL1        0.0870
     31 C         141.2295  143.1826  169.4034 C.2     1  UNL1        0.2256
     32 O         140.0008  144.0119  169.6325 O.2     1  UNL1       -0.2749
@<TRIPOS>BOND
     1    17    18    1
     2    18    11    1
     3    11    12    1
     4    12    13    1
     5    13    14    1
     6    14     1    1
     7     1     2    2
     8     2     3    1
     9     3     4    2
    10     4     5    1
    11     5    19    1
    12    19    20    1
    13    20    21    1
    14    20    22    1
    15    22    23    1
    16    23    24    1
    17    24    27    1
    18    27    28    1
    19    28    29    1
    20    29    30    1
    21    30    31    1
    22    31    32    2
    23    24    25    1
    24    25    26    1
    25     5     6    2
    26     6     7    1
    27     7     8    1
    28     8     9    2
    29     9    10    1
    30    14    15    1
    31    15    16    1
    32    16    11    1
    33     9     1    1
    34     7     3    1
    35    26    20    1
    36    31    27   am
@<TRIPOS>MOLECULE
*****
 32 36 0 0 0
SMALL
GASTEIGER

@<TRIPOS>ATOM
      1 C         138.8721  142.5136  157.6049 C.2     1  UNL1        0.0596
      2 C         138.9856  142.3031  159.0858 C.2     1  UNL1        0.0324
      3 C         139.6385  143.3460  159.9437 C.2     1  UNL1        0.0889
      4 N         139.8926  143.4158  161.4204 N.2     1  UNL1       -0.2236
      5 C         140.5890  144.7123  161.7101 C.2     1  UNL1        0.1859
      6 N         140.7653  145.4439  160.4125 N.2     1  UNL1       -0.2387
      7 C         140.1779  144.5994  159.3208 C.3     1  UNL1        0.1679
      8 C         140.0644  144.8099  157.8400 C.2     1  UNL1        0.0164
      9 C         139.4115  143.7670  156.9821 C.2     1  UNL1        0.0690
     10 CL        139.2980  143.9775  155.5012 Cl      1  UNL1       -0.0812
     11 N         136.9134  139.3848  155.0312 N.3     1  UNL1       -0.2698
     12 C         136.0924  140.4943  155.6185 C.3     1  UNL1        0.0938
     13 C         136.7453  141.5372  156.4764 C.3     1  UNL1        0.1081
     14 N         138.2192  141.4706  156.7470 N.pl3   1  UNL1       -0.3040
     15 C         139.0402  140.3611  156.1597 C.3     1  UNL1        0.1081
     16 C         138.3873  139.3182  155.3018 C.3     1  UNL1        0.0938
     17 C         137.0621  137.6176  153.1325 C.3     1  UNL1        0.0188
     18 C         136.2606  138.3418  154.1733 C.3     1  UNL1        0.0722
     19 S         141.0315  145.1929  163.0603 S.3     1  UNL1       -0.0777
     20 C         141.6040  144.2231  164.0511 C.3     1  UNL1        0.0462
     21 C         142.7923  144.4124  163.1556 C.3     1  UNL1        0.0113
     22 C         140.2168  144.3707  164.6027 C.3     1  UNL1        0.0121
     23 C         139.8148  143.6141  165.8340 C.3     1  UNL1        0.0207
     24 C         140.8000  142.7100  166.5137 C.3     1  UNL1        0.0754
     25 C         142.1871  142.5625  165.9622 C.3     1  UNL1        0.0207
     26 C         142.5891  143.3190  164.7309 C.3     1  UNL1        0.0121
     27 N         140.3980  141.9534  167.7450 N.am    1  UNL1       -0.2812
     28 C         140.2201  140.4676  167.8482 C.3     1  UNL1        0.0938
     29 C         139.8155  140.1458  169.2562 C.3     1  UNL1        0.0311
     30 C         139.7433  141.4328  170.0234 C.3     1  UNL1        0.0870
     31 C         140.1033  142.5500  169.0894 C.2     1  UNL1        0.2256
     32 O         140.1589  144.0078  169.4384 O.2     1  UNL1       -0.2749
@<TRIPOS>BOND
     1    17    18    1
     2    18    11    1
     3    11    12    1
     4    12    13    1
     5    13    14    1
     6    14     1    1
     7     1     2    2
     8     2     3    1
     9     3     4    2
    10     4     5    1
    11     5    19    1
    12    19    20    1
    13    20    21    1
    14    20    22    1
    15    22    23    1
    16    23    24    1
    17    24    27    1
    18    27    28    1
    19    28    29    1
    20    29    30    1
    21    30    31    1
    22    31    32    2
    23    24    25    1
    24    25    26    1
    25     5     6    2
    26     6     7    1
    27     7     8    1
    28     8     9    2
    29     9    10    1
    30    14    15    1
    31    15    16    1
    32    16    11    1
    33     9     1    1
    34     7     3    1
    35    26    20    1
    36    31    27   am
@<TRIPOS>MOLECULE
*****
 32 36 0 0 0
SMALL
GASTEIGER

@<TRIPOS>ATOM
      1 C         141.8206  142.2705  159.2762 C.2     1  UNL1        0.0596
      2 C         140.7890  141.7698  160.2433 C.2     1  UNL1        0.0324
      3 C         141.1404  140.6883  161.2215 C.2     1  UNL1        0.0889
      4 N         140.3396  139.9990  162.2861 N.2     1  UNL1       -0.2236
      5 C         141.2277  138.9922  162.9553 C.2     1  UNL1        0.1859
      6 N         142.5774  139.0594  162.3042 N.2     1  UNL1       -0.2387
      7 C         142.5235  140.1076  161.2326 C.3     1  UNL1        0.1679
      8 C         143.5550  140.6084  160.2656 C.2     1  UNL1        0.0164
      9 C         143.2035  141.6899  159.2874 C.2     1  UNL1        0.0690
     10 CL        144.2351  142.1907  158.3204 Cl      1  UNL1       -0.0812
     11 N         140.7662  145.5150  156.3416 N.3     1  UNL1       -0.2698
     12 C         140.5424  144.0762  155.9813 C.3     1  UNL1        0.0938
     13 C         140.8939  142.9947  156.9595 C.3     1  UNL1        0.1081
     14 N         141.4691  143.3521  158.2980 N.pl3   1  UNL1       -0.3040
     15 C         141.6929  144.7909  158.6582 C.3     1  UNL1        0.1081
     16 C         141.3414  145.8723  157.6800 C.3     1  UNL1        0.0938
     17 C         139.0245  147.1591  155.3348 C.3     1  UNL1        0.0188
     18 C         140.4147  146.5965  155.3634 C.3     1  UNL1        0.0722
     19 S         140.8351  138.0787  164.0784 S.3     1  UNL1       -0.0777
     20 C         139.9630  138.5864  165.1882 C.3     1  UNL1        0.0462
     21 C         139.0309  137.5949  164.5573 C.3     1  UNL1        0.0113
     22 C         141.1980  139.4016  165.4336 C.3     1  UNL1        0.0121
     23 C         141.2373  140.3802  166.5698 C.3     1  UNL1        0.0207
     24 C         140.0414  140.5436  167.4605 C.3     1  UNL1        0.0754
     25 C         138.8065  139.7284  167.2151 C.3     1  UNL1        0.0207
     26 C         138.7672  138.7498  166.0789 C.3     1  UNL1        0.0121
     27 N         140.0806  141.5222  168.5967 N.am    1  UNL1       -0.2812
     28 C         140.5762  142.9361  168.5258 C.3     1  UNL1        0.0938
     29 C         140.4331  143.5464  169.8885 C.3     1  UNL1        0.0311
     30 C         139.8489  142.5096  170.8017 C.3     1  UNL1        0.0870
     31 C         139.6311  141.2585  170.0033 C.2     1  UNL1        0.2256
     32 O         139.0635  139.9700  170.5206 O.2     1  UNL1       -0.2749
@<TRIPOS>BOND
     1    17    18    1
     2    18    11    1
     3    11    12    1
     4    12    13    1
     5    13    14    1
     6    14     1    1
     7     1     2    2
     8     2     3    1
     9     3     4    2
    10     4     5    1
    11     5    19    1
    12    19    20    1
    13    20    21    1
    14    20    22    1
    15    22    23    1
    16    23    24    1
    17    24    27    1
    18    27    28    1
    19    28    29    1
    20    29    30    1
    21    30    31    1
    22    31    32    2
    23    24    25    1
    24    25    26    1
    25     5     6    2
    26     6     7    1
    27     7     8    1
    28     8     9    2
    29     9    10    1
    30    14    15    1
    31    15    16    1
    32    16    11    1
    33     9     1    1
    34     7     3    1
    35    26    20    1
    36    31    27   am
@<TRIPOS>MOLECULE
*****
 32 36 0 0 0
SMALL
GASTEIGER

@<TRIPOS>ATOM
      1 C         142.6655  140.1798  158.5145 C.2     1  UNL1        0.0596
      2 C         141.7819  140.5599  159.6656 C.2     1  UNL1        0.0324
      3 C         142.1295  141.7436  160.5189 C.2     1  UNL1        0.0889
      4 N         141.4547  142.3539  161.7114 N.2     1  UNL1       -0.2236
      5 C         142.2689  143.5347  162.1507 C.2     1  UNL1        0.1859
      6 N         143.4467  143.6542  161.2296 N.2     1  UNL1       -0.2387
      7 C         143.3606  142.5472  160.2211 C.3     1  UNL1        0.1679
      8 C         144.2441  142.1670  159.0700 C.2     1  UNL1        0.0164
      9 C         143.8965  140.9833  158.2168 C.2     1  UNL1        0.0690
     10 CL        144.7801  140.6033  157.0657 Cl      1  UNL1       -0.0812
     11 N         141.6227  136.6287  155.9547 N.3     1  UNL1       -0.2698
     12 C         141.1003  137.9890  155.5989 C.3     1  UNL1        0.0938
     13 C         141.4479  139.1727  156.4521 C.3     1  UNL1        0.1081
     14 N         142.3179  138.9961  157.6612 N.pl3   1  UNL1       -0.3040
     15 C         142.8402  137.6357  158.0171 C.3     1  UNL1        0.1081
     16 C         142.4926  136.4521  157.1639 C.3     1  UNL1        0.0938
     17 C         141.6801  134.0660  155.5312 C.3     1  UNL1        0.0188
     18 C         141.2751  135.4450  155.1015 C.3     1  UNL1        0.0722
     19 S         141.9595  144.4376  163.3079 S.3     1  UNL1       -0.0777
     20 C         141.2589  143.8934  164.5174 C.3     1  UNL1        0.0462
     21 C         140.1398  144.6780  163.8993 C.3     1  UNL1        0.0113
     22 C         142.6212  143.2977  164.7154 C.3     1  UNL1        0.0121
     23 C         142.8944  142.4303  165.9083 C.3     1  UNL1        0.0207
     24 C         141.8051  142.1585  166.9032 C.3     1  UNL1        0.0754
     25 C         140.4428  142.7542  166.7051 C.3     1  UNL1        0.0207
     26 C         140.1697  143.6216  165.5122 C.3     1  UNL1        0.0121
     27 N         142.0783  141.2911  168.0961 N.am    1  UNL1       -0.2812
     28 C         141.4093  139.9855  168.4086 C.3     1  UNL1        0.0938
     29 C         141.9860  139.4645  169.6916 C.3     1  UNL1        0.0311
     30 C         143.0114  140.4482  170.1720 C.3     1  UNL1        0.0870
     31 C         143.0685  141.5772  169.1860 C.2     1  UNL1        0.2256
     32 O         143.9593  142.7808  169.2742 O.2     1  UNL1       -0.2749
@<TRIPOS>BOND
     1    17    18    1
     2    18    11    1
     3    11    12    1
     4    12    13    1
     5    13    14    1
     6    14     1    1
     7     1     2    2
     8     2     3    1
     9     3     4    2
    10     4     5    1
    11     5    19    1
    12    19    20    1
    13    20    21    1
    14    20    22    1
    15    22    23    1
    16    23    24    1
    17    24    27    1
    18    27    28    1
    19    28    29    1
    20    29    30    1
    21    30    31    1
    22    31    32    2
    23    24    25    1
    24    25    26    1
    25     5     6    2
    26     6     7    1
    27     7     8    1
    28     8     9    2
    29     9    10    1
    30    14    15    1
    31    15    16    1
    32    16    11    1
    33     9     1    1
    34     7     3    1
    35    26    20    1
    36    31    27   am
@<TRIPOS>MOLECULE
*****
 32 36 0 0 0
SMALL
GASTEIGER

@<TRIPOS>ATOM
      1 C         140.1630  142.7590  163.9943 C.2     1  UNL1        0.0596
      2 C         140.6884  142.0966  162.7552 C.2     1  UNL1        0.0324
      3 C         140.4378  142.7137  161.4112 C.2     1  UNL1        0.0889
      4 N         140.8284  142.2934  160.0253 N.2     1  UNL1       -0.2236
      5 C         140.2938  143.3131  159.0638 C.2     1  UNL1        0.1859
      6 N         139.5727  144.3635  159.8555 N.2     1  UNL1       -0.2387
      7 C         139.6617  143.9930  161.3063 C.3     1  UNL1        0.1679
      8 C         139.1363  144.6553  162.5454 C.2     1  UNL1        0.0164
      9 C         139.3870  144.0383  163.8894 C.2     1  UNL1        0.0690
     10 CL        138.8616  144.7007  165.1285 Cl      1  UNL1       -0.0812
     11 N         140.9151  140.9079  168.0265 N.3     1  UNL1       -0.2698
     12 C         141.8855  141.9052  167.4663 C.3     1  UNL1        0.0938
     13 C         141.6348  142.5222  166.1223 C.3     1  UNL1        0.1081
     14 N         140.4137  142.1419  165.3385 N.pl3   1  UNL1       -0.3040
     15 C         139.4433  141.1447  165.8986 C.3     1  UNL1        0.1081
     16 C         139.6940  140.5276  167.2426 C.3     1  UNL1        0.0938
     17 C         142.3272  139.3617  169.5644 C.3     1  UNL1        0.0188
     18 C         141.1657  140.2908  169.3705 C.3     1  UNL1        0.0722
     19 S         140.4524  143.2870  157.5725 S.3     1  UNL1       -0.0777
     20 C         139.5730  144.1426  156.7096 C.3     1  UNL1        0.0462
     21 C         138.7903  142.8631  156.6913 C.3     1  UNL1        0.0113
     22 C         140.6611  145.1250  157.0276 C.3     1  UNL1        0.0121
     23 C         140.5980  146.5186  156.4763 C.3     1  UNL1        0.0207
     24 C         139.4467  146.9298  155.6071 C.3     1  UNL1        0.0754
     25 C         138.3587  145.9475  155.2892 C.3     1  UNL1        0.0207
     26 C         138.4218  144.5539  155.8404 C.3     1  UNL1        0.0121
     27 N         139.3836  148.3234  155.0558 N.am    1  UNL1       -0.2812
     28 C         139.8907  148.7651  153.7150 C.3     1  UNL1        0.0938
     29 C         139.6228  150.2347  153.5792 C.3     1  UNL1        0.0311
     30 C         138.9502  150.7014  154.8361 C.3     1  UNL1        0.0870
     31 C         138.8023  149.5202  155.7487 C.2     1  UNL1        0.2256
     32 O         138.1821  149.5332  157.1144 O.2     1  UNL1       -0.2749
@<TRIPOS>BOND
     1    17    18    1
     2    18    11    1
     3    11    12    1
     4    12    13    1
     5    13    14    1
     6    14     1    1
     7     1     2    2
     8     2     3    1
     9     3     4    2
    10     4     5    1
    11     5    19    1
    12    19    20    1
    13    20    21    1
    14    20    22    1
    15    22    23    1
    16    23    24    1
    17    24    27    1
    18    27    28    1
    19    28    29    1
    20    29    30    1
    21    30    31    1
    22    31    32    2
    23    24    25    1
    24    25    26    1
    25     5     6    2
    26     6     7    1
    27     7     8    1
    28     8     9    2
    29     9    10    1
    30    14    15    1
    31    15    16    1
    32    16    11    1
    33     9     1    1
    34     7     3    1
    35    26    20    1
    36    31    27   am
@<TRIPOS>MOLECULE
*****
 32 36 0 0 0
SMALL
GASTEIGER

@<TRIPOS>ATOM
      1 C         140.7254  138.9022  158.3658 C.2     1  UNL1        0.0596
      2 C         139.9165  138.5890  159.5897 C.2     1  UNL1        0.0324
      3 C         139.4586  139.6980  160.4900 C.2     1  UNL1        0.0889
      4 N         138.6546  139.6955  161.7563 N.2     1  UNL1       -0.2236
      5 C         138.5085  141.1160  162.2153 C.2     1  UNL1        0.1859
      6 N         139.2222  141.9965  161.2327 N.2     1  UNL1       -0.2387
      7 C         139.8094  141.1200  160.1664 C.3     1  UNL1        0.1679
      8 C         140.6181  141.4331  158.9425 C.2     1  UNL1        0.0164
      9 C         141.0761  140.3242  158.0423 C.2     1  UNL1        0.0690
     10 CL        141.8849  140.6374  156.8184 Cl      1  UNL1       -0.0812
     11 N         142.0993  135.5753  155.6650 N.3     1  UNL1       -0.2698
     12 C         140.7377  136.1770  155.4808 C.3     1  UNL1        0.0938
     13 C         140.2797  137.2859  156.3811 C.3     1  UNL1        0.1081
     14 N         141.1834  137.7932  157.4655 N.pl3   1  UNL1       -0.3040
     15 C         142.5450  137.1916  157.6497 C.3     1  UNL1        0.1081
     16 C         143.0030  136.0827  156.7494 C.3     1  UNL1        0.0938
     17 C         142.5110  133.0452  155.2422 C.3     1  UNL1        0.0188
     18 C         142.5574  134.4664  154.7647 C.3     1  UNL1        0.0722
     19 S         137.7771  141.5755  163.4417 S.3     1  UNL1       -0.0777
     20 C         138.4354  142.5290  164.3944 C.3     1  UNL1        0.0462
     21 C         137.6063  143.4902  163.5952 C.3     1  UNL1        0.0113
     22 C         139.0359  141.2367  164.8627 C.3     1  UNL1        0.0121
     23 C         140.0067  141.2316  166.0062 C.3     1  UNL1        0.0207
     24 C         140.3770  142.5190  166.6813 C.3     1  UNL1        0.0754
     25 C         139.7765  143.8112  166.2129 C.3     1  UNL1        0.0207
     26 C         138.8057  143.8163  165.0695 C.3     1  UNL1        0.0121
     27 N         141.3478  142.5139  167.8248 N.am    1  UNL1       -0.2812
     28 C         142.6989  141.8622  167.8315 C.3     1  UNL1        0.0938
     29 C         143.3240  142.1052  169.1731 C.3     1  UNL1        0.0311
     30 C         142.3594  142.9071  169.9956 C.3     1  UNL1        0.0870
     31 C         141.1380  143.1597  169.1623 C.2     1  UNL1        0.2256
     32 O         139.9206  143.9239  169.5911 O.2     1  UNL1       -0.2749
@<TRIPOS>BOND
     1    17    18    1
     2    18    11    1
     3    11    12    1
     4    12    13    1
     5    13    14    1
     6    14     1    1
     7     1     2    2
     8     2     3    1
     9     3     4    2
    10     4     5    1
    11     5    19    1
    12    19    20    1
    13    20    21    1
    14    20    22    1
    15    22    23    1
    16    23    24    1
    17    24    27    1
    18    27    28    1
    19    28    29    1
    20    29    30    1
    21    30    31    1
    22    31    32    2
    23    24    25    1
    24    25    26    1
    25     5     6    2
    26     6     7    1
    27     7     8    1
    28     8     9    2
    29     9    10    1
    30    14    15    1
    31    15    16    1
    32    16    11    1
    33     9     1    1
    34     7     3    1
    35    26    20    1
    36    31    27   am
@<TRIPOS>MOLECULE
*****
 32 36 0 0 0
SMALL
GASTEIGER

@<TRIPOS>ATOM
      1 C         141.3375  143.5264  158.7984 C.2     1  UNL1        0.0596
      2 C         142.5553  143.7173  159.6533 C.2     1  UNL1        0.0324
      3 C         142.8099  142.7988  160.8115 C.2     1  UNL1        0.0889
      4 N         143.9160  142.7421  161.8232 N.2     1  UNL1       -0.2236
      5 C         143.6366  141.5977  162.7517 C.2     1  UNL1        0.1859
      6 N         142.3579  140.9471  162.3139 N.2     1  UNL1       -0.2387
      7 C         141.8470  141.6894  161.1148 C.3     1  UNL1        0.1679
      8 C         140.6293  141.4986  160.2599 C.2     1  UNL1        0.0164
      9 C         140.3746  142.4171  159.1017 C.2     1  UNL1        0.0690
     10 CL        139.1569  142.2262  158.2468 Cl      1  UNL1       -0.0812
     11 N         140.5734  146.2820  155.3237 N.3     1  UNL1       -0.2698
     12 C         139.9919  146.5944  156.6706 C.3     1  UNL1        0.0938
     13 C         140.2466  145.6759  157.8288 C.3     1  UNL1        0.1081
     14 N         141.0828  144.4450  157.6401 N.pl3   1  UNL1       -0.3040
     15 C         141.6644  144.1326  156.2932 C.3     1  UNL1        0.1081
     16 C         141.4097  145.0511  155.1350 C.3     1  UNL1        0.0938
     17 C         139.4691  148.4227  154.3502 C.3     1  UNL1        0.0188
     18 C         140.3188  147.2004  154.1655 C.3     1  UNL1        0.0722
     19 S         144.4866  141.1776  163.9140 S.3     1  UNL1       -0.0777
     20 C         143.9434  140.2206  164.9333 C.3     1  UNL1        0.0462
     21 C         144.7964  139.2863  164.1275 C.3     1  UNL1        0.0113
     22 C         143.2790  141.4873  165.3852 C.3     1  UNL1        0.0121
     23 C         142.3676  141.4726  166.5765 C.3     1  UNL1        0.0207
     24 C         142.1206  140.1911  167.3160 C.3     1  UNL1        0.0754
     25 C         142.7850  138.9244  166.8641 C.3     1  UNL1        0.0207
     26 C         143.6963  138.9392  165.6728 C.3     1  UNL1        0.0121
     27 N         141.2092  140.1763  168.5073 N.am    1  UNL1       -0.2812
     28 C         139.7441  140.4977  168.5006 C.3     1  UNL1        0.0938
     29 C         139.2324  140.3576  169.9036 C.3     1  UNL1        0.0311
     30 C         140.3813  139.9497  170.7775 C.3     1  UNL1        0.0870
     31 C         141.6031  139.8377  169.9145 C.2     1  UNL1        0.2256
     32 O         142.9774  139.4543  170.3774 O.2     1  UNL1       -0.2749
@<TRIPOS>BOND
     1    17    18    1
     2    18    11    1
     3    11    12    1
     4    12    13    1
     5    13    14    1
     6    14     1    1
     7     1     2    2
     8     2     3    1
     9     3     4    2
    10     4     5    1
    11     5    19    1
    12    19    20    1
    13    20    21    1
    14    20    22    1
    15    22    23    1
    16    23    24    1
    17    24    27    1
    18    27    28    1
    19    28    29    1
    20    29    30    1
    21    30    31    1
    22    31    32    2
    23    24    25    1
    24    25    26    1
    25     5     6    2
    26     6     7    1
    27     7     8    1
    28     8     9    2
    29     9    10    1
    30    14    15    1
    31    15    16    1
    32    16    11    1
    33     9     1    1
    34     7     3    1
    35    26    20    1
    36    31    27   am
@<TRIPOS>MOLECULE
*****
 32 36 0 0 0
SMALL
GASTEIGER

@<TRIPOS>ATOM
      1 C         140.2412  143.1621  163.9258 C.2     1  UNL1        0.0596
      2 C         140.8304  142.6815  162.6327 C.2     1  UNL1        0.0324
      3 C         140.6317  143.4770  161.3766 C.2     1  UNL1        0.0889
      4 N         141.0896  143.2556  159.9655 N.2     1  UNL1       -0.2236
      5 C         140.5848  144.3947  159.1303 C.2     1  UNL1        0.1859
      6 N         139.8149  145.3201  160.0253 N.2     1  UNL1       -0.2387
      7 C         139.8439  144.7529  161.4136 C.3     1  UNL1        0.1679
      8 C         139.2547  145.2334  162.7067 C.2     1  UNL1        0.0164
      9 C         139.4534  144.4379  163.9628 C.2     1  UNL1        0.0690
     10 CL        138.8642  144.9185  165.2559 Cl      1  UNL1       -0.0812
     11 N         140.8373  140.7757  167.6942 N.3     1  UNL1       -0.2698
     12 C         141.8883  141.7487  167.2485 C.3     1  UNL1        0.0938
     13 C         141.6896  142.5441  165.9924 C.3     1  UNL1        0.1081
     14 N         140.4399  142.3666  165.1820 N.pl3   1  UNL1       -0.3040
     15 C         139.3889  141.3936  165.6277 C.3     1  UNL1        0.1081
     16 C         139.5875  140.5982  166.8838 C.3     1  UNL1        0.0938
     17 C         142.4228  139.6717  169.4312 C.3     1  UNL1        0.0188
     18 C         141.0358  139.9803  168.9502 C.3     1  UNL1        0.0722
     19 S         140.8102  144.5766  157.6586 S.3     1  UNL1       -0.0777
     20 C         139.6387  144.7007  156.7301 C.3     1  UNL1        0.0462
     21 C         140.1455  146.1122  156.7001 C.3     1  UNL1        0.0113
     22 C         139.5388  143.2461  157.0825 C.3     1  UNL1        0.0121
     23 C         138.4433  142.4058  156.4960 C.3     1  UNL1        0.0207
     24 C         137.4478  143.0202  155.5571 C.3     1  UNL1        0.0754
     25 C         137.5478  144.4747  155.2047 C.3     1  UNL1        0.0207
     26 C         138.6432  145.3151  155.7912 C.3     1  UNL1        0.0121
     27 N         136.3524  142.1799  154.9706 N.am    1  UNL1       -0.2812
     28 C         135.7383  142.3538  153.6131 C.3     1  UNL1        0.0938
     29 C         134.6851  141.2996  153.4422 C.3     1  UNL1        0.0311
     30 C         134.6482  140.4740  154.6941 C.3     1  UNL1        0.0870
     31 C         135.6786  141.0181  155.6387 C.2     1  UNL1        0.2256
     32 O         135.9821  140.4926  157.0105 O.2     1  UNL1       -0.2749
@<TRIPOS>BOND
     1    17    18    1
     2    18    11    1
     3    11    12    1
     4    12    13    1
     5    13    14    1
     6    14     1    1
     7     1     2    2
     8     2     3    1
     9     3     4    2
    10     4     5    1
    11     5    19    1
    12    19    20    1
    13    20    21    1
    14    20    22    1
    15    22    23    1
    16    23    24    1
    17    24    27    1
    18    27    28    1
    19    28    29    1
    20    29    30    1
    21    30    31    1
    22    31    32    2
    23    24    25    1
    24    25    26    1
    25     5     6    2
    26     6     7    1
    27     7     8    1
    28     8     9    2
    29     9    10    1
    30    14    15    1
    31    15    16    1
    32    16    11    1
    33     9     1    1
    34     7     3    1
    35    26    20    1
    36    31    27   am
