@<TRIPOS>MOLECULE
*****
 28 32 0 0 0
SMALL
GASTEIGER

@<TRIPOS>ATOM
      1 C         141.3272  141.0571  170.5553 C.3     1  UNL1        0.0475
      2 C         140.8555  141.1017  169.1320 C.3     1  UNL1        0.1727
      3 O         141.4609  142.0823  168.1717 O.3     1  UNL1       -0.4792
      4 C         140.9893  142.1269  166.7485 C.ar    1  UNL1        0.1362
      5 C         141.5947  143.1075  165.7882 C.ar    1  UNL1        0.0366
      6 C         141.1231  143.1521  164.3650 C.ar    1  UNL1        0.0032
      7 C         140.0461  142.2162  163.9020 C.ar    1  UNL1        0.0036
      8 C         139.4408  141.2357  164.8622 C.ar    1  UNL1        0.0008
      9 C         139.9124  141.1911  166.2855 C.ar    1  UNL1        0.0357
     10 C         139.3071  140.2105  167.2458 C.3     1  UNL1        0.1582
     11 C         138.7365  140.1393  165.8603 C.3     1  UNL1        0.2351
     12 O         137.6884  139.0662  165.8453 O.2     1  UNL1       -0.4478
     13 C         137.6112  138.4743  167.2214 C.2     1  UNL1        0.2770
     14 N         136.6945  137.3693  167.6556 N.pl3   1  UNL1       -0.3133
     15 N         138.6116  139.1816  168.0870 N.2     1  UNL1       -0.2202
     16 C         139.7786  140.1659  168.6690 C.3     1  UNL1        0.1174
     17 C         139.9475  140.4394  168.4011 C.3     1  UNL1        0.1502
     18 O         139.7700  140.1519  168.6827 O.3     1  UNL1       -0.3532
     19 C         139.9475  140.4394  168.4011 C.3     1  UNL1        0.1502
     20 H         136.0694  136.9662  167.0107 H       1  UNL1        0.1466
     21 H         136.7180  137.0472  168.5857 H       1  UNL1        0.1466
     22 C         139.5746  142.2609  162.4788 C.ar    1  UNL1        0.0460
     23 C         140.4237  141.6772  161.3886 C.ar    1  UNL1        0.0054
     24 C         139.9522  141.7219  159.9654 C.ar    1  UNL1        0.0208
     25 C         138.6315  142.3502  159.6323 C.ar    1  UNL1        0.1013
     26 N         137.7824  142.9339  160.7223 N.ar    1  UNL1       -0.2165
     27 C         138.2539  142.8893  162.1456 C.ar    1  UNL1        0.2222
     28 F         137.4048  143.4729  163.2357 F       1  UNL1       -0.1832
@<TRIPOS>BOND
     1     2     1    1
     2     2     3    1
     3     3     4    1
     4     4     5   ar
     5     5     6   ar
     6     6     7   ar
     7     7    22    1
     8    22    23   ar
     9    23    24   ar
    10    24    25   ar
    11    25    26   ar
    12    26    27   ar
    13    27    28    1
    14     7     8   ar
    15     8     9   ar
    16     9    10    1
    17    10    11    1
    18    11    12    1
    19    12    13    1
    20    13    14    1
    21    13    15    2
    22    10    16    1
    23    16    17    1
    24    17    18    1
    25    18    19    1
    26    16     2    1
    27     9     4   ar
    28    15    10    1
    29    19    16    1
    30    27    22   ar
    31    14    20    1
    32    14    21    1
@<TRIPOS>MOLECULE
*****
 28 32 0 0 0
SMALL
GASTEIGER

@<TRIPOS>ATOM
      1 C         136.9262  139.4655  170.9060 C.3     1  UNL1        0.0475
      2 C         137.9927  139.6892  169.8751 C.3     1  UNL1        0.1727
      3 O         137.8461  139.0987  168.5040 O.3     1  UNL1       -0.4792
      4 C         138.9125  139.3223  167.4732 C.ar    1  UNL1        0.1362
      5 C         138.7659  138.7318  166.1021 C.ar    1  UNL1        0.0366
      6 C         139.8323  138.9554  165.0712 C.ar    1  UNL1        0.0032
      7 C         141.0454  139.7695  165.4114 C.ar    1  UNL1        0.0036
      8 C         141.1920  140.3601  166.7825 C.ar    1  UNL1        0.0008
      9 C         140.1255  140.1364  167.8134 C.ar    1  UNL1        0.0357
     10 C         140.2721  140.7269  169.1844 C.3     1  UNL1        0.1582
     11 C         141.4148  141.0341  168.2625 C.3     1  UNL1        0.2351
     12 O         142.4044  141.8739  169.0146 O.2     1  UNL1       -0.4478
     13 C         141.8733  142.0857  170.4013 C.2     1  UNL1        0.2770
     14 N         142.5425  142.8688  171.4917 N.pl3   1  UNL1       -0.3133
     15 N         140.5555  141.3768  170.5063 N.2     1  UNL1       -0.2202
     16 C         139.2057  140.5033  170.2153 C.3     1  UNL1        0.1174
     17 C         139.1648  140.3386  169.8328 C.3     1  UNL1        0.1502
     18 O         139.2078  140.5117  170.2348 O.3     1  UNL1       -0.3532
     19 C         139.1648  140.3386  169.8328 C.3     1  UNL1        0.1502
     20 H         143.4116  143.3004  171.3254 H       1  UNL1        0.1466
     21 H         142.1126  142.9512  172.3735 H       1  UNL1        0.1466
     22 C         142.1118  139.9932  164.3806 C.ar    1  UNL1        0.0460
     23 C         141.8652  140.9333  163.2380 C.ar    1  UNL1        0.0054
     24 C         142.9316  141.1569  162.2072 C.ar    1  UNL1        0.0208
     25 C         144.2447  140.4404  162.3188 C.ar    1  UNL1        0.1013
     26 N         144.4913  139.5003  163.4612 N.ar    1  UNL1       -0.2165
     27 C         143.4249  139.2766  164.4922 C.ar    1  UNL1        0.2222
     28 F         143.6716  138.3365  165.6346 F       1  UNL1       -0.1832
@<TRIPOS>BOND
     1     2     1    1
     2     2     3    1
     3     3     4    1
     4     4     5   ar
     5     5     6   ar
     6     6     7   ar
     7     7    22    1
     8    22    23   ar
     9    23    24   ar
    10    24    25   ar
    11    25    26   ar
    12    26    27   ar
    13    27    28    1
    14     7     8   ar
    15     8     9   ar
    16     9    10    1
    17    10    11    1
    18    11    12    1
    19    12    13    1
    20    13    14    1
    21    13    15    2
    22    10    16    1
    23    16    17    1
    24    17    18    1
    25    18    19    1
    26    16     2    1
    27     9     4   ar
    28    15    10    1
    29    19    16    1
    30    27    22   ar
    31    14    20    1
    32    14    21    1
@<TRIPOS>MOLECULE
*****
 28 32 0 0 0
SMALL
GASTEIGER

@<TRIPOS>ATOM
      1 C         142.9886  138.0195  170.3663 C.3     1  UNL1        0.0475
      2 C         142.5704  139.1147  169.4305 C.3     1  UNL1        0.1727
      3 O         143.0316  139.0986  168.0032 O.3     1  UNL1       -0.4792
      4 C         142.6135  140.1937  167.0674 C.ar    1  UNL1        0.1362
      5 C         143.0747  140.1775  165.6402 C.ar    1  UNL1        0.0366
      6 C         142.6566  141.2727  164.7044 C.ar    1  UNL1        0.0032
      7 C         141.7772  142.3841  165.1959 C.ar    1  UNL1        0.0036
      8 C         141.3159  142.4003  166.6231 C.ar    1  UNL1        0.0008
      9 C         141.7341  141.3051  167.5589 C.ar    1  UNL1        0.0357
     10 C         141.2729  141.3213  168.9862 C.3     1  UNL1        0.1582
     11 C         140.7761  142.4786  168.1713 C.3     1  UNL1        0.2351
     12 O         139.9321  143.3431  169.0604 O.2     1  UNL1       -0.4478
     13 C         139.9072  142.7201  170.4246 C.2     1  UNL1        0.2770
     14 N         139.1812  143.2530  171.6241 N.pl3   1  UNL1       -0.3133
     15 N         140.7359  141.4705  170.3788 N.2     1  UNL1       -0.2202
     16 C         141.6911  140.2261  169.9219 C.3     1  UNL1        0.1174
     17 C         141.8198  140.2216  169.5237 C.3     1  UNL1        0.1502
     18 O         141.6845  140.2263  169.9423 O.3     1  UNL1       -0.3532
     19 C         141.8198  140.2216  169.5237 C.3     1  UNL1        0.1502
     20 H         138.6606  144.0857  171.5546 H       1  UNL1        0.1466
     21 H         139.2253  142.7702  172.4809 H       1  UNL1        0.1466
     22 C         141.3590  143.4793  164.2601 C.ar    1  UNL1        0.0460
     23 C         139.9284  143.5857  163.8217 C.ar    1  UNL1        0.0054
     24 C         139.5103  144.6809  162.8859 C.ar    1  UNL1        0.0208
     25 C         140.5226  145.6697  162.3885 C.ar    1  UNL1        0.1013
     26 N         141.9532  145.5633  162.8269 N.ar    1  UNL1       -0.2165
     27 C         142.3714  144.4681  163.7627 C.ar    1  UNL1        0.2222
     28 F         143.8019  144.3617  164.2011 F       1  UNL1       -0.1832
@<TRIPOS>BOND
     1     2     1    1
     2     2     3    1
     3     3     4    1
     4     4     5   ar
     5     5     6   ar
     6     6     7   ar
     7     7    22    1
     8    22    23   ar
     9    23    24   ar
    10    24    25   ar
    11    25    26   ar
    12    26    27   ar
    13    27    28    1
    14     7     8   ar
    15     8     9   ar
    16     9    10    1
    17    10    11    1
    18    11    12    1
    19    12    13    1
    20    13    14    1
    21    13    15    2
    22    10    16    1
    23    16    17    1
    24    17    18    1
    25    18    19    1
    26    16     2    1
    27     9     4   ar
    28    15    10    1
    29    19    16    1
    30    27    22   ar
    31    14    20    1
    32    14    21    1
@<TRIPOS>MOLECULE
*****
 28 32 0 0 0
SMALL
GASTEIGER

@<TRIPOS>ATOM
      1 C         137.3522  139.9744  160.6303 C.3     1  UNL1        0.0475
      2 C         137.9014  140.4046  161.9582 C.3     1  UNL1        0.1727
      3 O         137.9886  139.4216  163.0878 O.3     1  UNL1       -0.4792
      4 C         138.5379  139.8518  164.4157 C.ar    1  UNL1        0.1362
      5 C         138.6251  138.8687  165.5453 C.ar    1  UNL1        0.0366
      6 C         139.1743  139.2989  166.8732 C.ar    1  UNL1        0.0032
      7 C         139.6364  140.7122  167.0714 C.ar    1  UNL1        0.0036
      8 C         139.5491  141.6952  165.9418 C.ar    1  UNL1        0.0008
      9 C         138.9999  141.2650  164.6139 C.ar    1  UNL1        0.0357
     10 C         138.9127  142.2480  163.4843 C.3     1  UNL1        0.1582
     11 C         139.4815  142.8205  164.7487 C.3     1  UNL1        0.2351
     12 O         139.8074  144.2633  164.4988 O.2     1  UNL1       -0.4478
     13 C         139.4399  144.5824  163.0800 C.2     1  UNL1        0.2770
     14 N         139.5977  145.9133  162.4064 N.pl3   1  UNL1       -0.3133
     15 N         138.8870  143.3369  162.4530 N.2     1  UNL1       -0.2202
     16 C         138.3634  141.8178  162.1564 C.3     1  UNL1        0.1174
     17 C         138.3878  141.5436  162.4716 C.3     1  UNL1        0.1502
     18 O         138.3622  141.8319  162.1403 O.3     1  UNL1       -0.3532
     19 C         138.3878  141.5436  162.4716 C.3     1  UNL1        0.1502
     20 H         139.9729  146.6755  162.9041 H       1  UNL1        0.1466
     21 H         139.3262  146.0247  161.4667 H       1  UNL1        0.1466
     22 C         140.1856  141.1424  168.3993 C.ar    1  UNL1        0.0460
     23 C         141.4557  141.9378  168.4635 C.ar    1  UNL1        0.0054
     24 C         142.0049  142.3680  169.7914 C.ar    1  UNL1        0.0208
     25 C         141.2841  142.0027  171.0551 C.ar    1  UNL1        0.1013
     26 N         140.0140  141.2073  170.9909 N.ar    1  UNL1       -0.2165
     27 C         139.4647  140.7771  169.6630 C.ar    1  UNL1        0.2222
     28 F         138.1947  139.9817  169.5989 F       1  UNL1       -0.1832
@<TRIPOS>BOND
     1     2     1    1
     2     2     3    1
     3     3     4    1
     4     4     5   ar
     5     5     6   ar
     6     6     7   ar
     7     7    22    1
     8    22    23   ar
     9    23    24   ar
    10    24    25   ar
    11    25    26   ar
    12    26    27   ar
    13    27    28    1
    14     7     8   ar
    15     8     9   ar
    16     9    10    1
    17    10    11    1
    18    11    12    1
    19    12    13    1
    20    13    14    1
    21    13    15    2
    22    10    16    1
    23    16    17    1
    24    17    18    1
    25    18    19    1
    26    16     2    1
    27     9     4   ar
    28    15    10    1
    29    19    16    1
    30    27    22   ar
    31    14    20    1
    32    14    21    1
@<TRIPOS>MOLECULE
*****
 28 32 0 0 0
SMALL
GASTEIGER

@<TRIPOS>ATOM
      1 C         142.0948  141.2539  171.0311 C.3     1  UNL1        0.0475
      2 C         141.6126  141.1061  169.6184 C.3     1  UNL1        0.1727
      3 O         140.3593  140.3338  169.3306 O.3     1  UNL1       -0.4792
      4 C         139.8771  140.1859  167.9180 C.ar    1  UNL1        0.1362
      5 C         138.6238  139.4136  167.6303 C.ar    1  UNL1        0.0366
      6 C         138.1415  139.2658  166.2177 C.ar    1  UNL1        0.0032
      7 C         138.9126  139.8903  165.0927 C.ar    1  UNL1        0.0036
      8 C         140.1659  140.6626  165.3804 C.ar    1  UNL1        0.0008
      9 C         140.6482  140.8104  166.7931 C.ar    1  UNL1        0.0357
     10 C         141.9015  141.5827  167.0808 C.3     1  UNL1        0.1582
     11 C         141.5441  141.5200  165.6253 C.3     1  UNL1        0.2351
     12 O         142.5871  142.2781  164.8588 O.2     1  UNL1       -0.4478
     13 C         143.5891  142.8093  165.8405 C.2     1  UNL1        0.2770
     14 N         144.8019  143.6267  165.5075 N.pl3   1  UNL1       -0.3133
     15 N         143.1654  142.3795  167.2138 N.2     1  UNL1       -0.2202
     16 C         142.3837  141.7305  168.4935 C.3     1  UNL1        0.1174
     17 C         142.0340  141.5150  168.4132 C.3     1  UNL1        0.1502
     18 O         142.4016  141.7415  168.4976 O.3     1  UNL1       -0.3532
     19 C         142.0340  141.5150  168.4132 C.3     1  UNL1        0.1502
     20 H         144.9967  143.8593  164.5709 H       1  UNL1        0.1466
     21 H         145.4030  143.9306  166.2255 H       1  UNL1        0.1466
     22 C         138.4304  139.7424  163.6801 C.ar    1  UNL1        0.0460
     23 C         138.6385  138.4499  162.9479 C.ar    1  UNL1        0.0054
     24 C         138.1562  138.3020  161.5353 C.ar    1  UNL1        0.0208
     25 C         137.4659  139.4467  160.8547 C.ar    1  UNL1        0.1013
     26 N         137.2578  140.7393  161.5868 N.ar    1  UNL1       -0.2165
     27 C         137.7401  140.8871  162.9995 C.ar    1  UNL1        0.2222
     28 F         137.5320  142.1797  163.7316 F       1  UNL1       -0.1832
@<TRIPOS>BOND
     1     2     1    1
     2     2     3    1
     3     3     4    1
     4     4     5   ar
     5     5     6   ar
     6     6     7   ar
     7     7    22    1
     8    22    23   ar
     9    23    24   ar
    10    24    25   ar
    11    25    26   ar
    12    26    27   ar
    13    27    28    1
    14     7     8   ar
    15     8     9   ar
    16     9    10    1
    17    10    11    1
    18    11    12    1
    19    12    13    1
    20    13    14    1
    21    13    15    2
    22    10    16    1
    23    16    17    1
    24    17    18    1
    25    18    19    1
    26    16     2    1
    27     9     4   ar
    28    15    10    1
    29    19    16    1
    30    27    22   ar
    31    14    20    1
    32    14    21    1
@<TRIPOS>MOLECULE
*****
 28 32 0 0 0
SMALL
GASTEIGER

@<TRIPOS>ATOM
      1 C         136.9080  137.5081  167.4460 C.3     1  UNL1        0.0475
      2 C         137.9030  138.5417  167.0081 C.3     1  UNL1        0.1727
      3 O         138.2085  138.7183  165.5502 O.3     1  UNL1       -0.4792
      4 C         139.2034  139.7518  165.1122 C.ar    1  UNL1        0.1362
      5 C         139.5090  139.9283  163.6543 C.ar    1  UNL1        0.0366
      6 C         140.5039  140.9619  163.2163 C.ar    1  UNL1        0.0032
      7 C         141.1934  141.8189  164.2362 C.ar    1  UNL1        0.0036
      8 C         140.8878  141.6424  165.6941 C.ar    1  UNL1        0.0008
      9 C         139.8928  140.6088  166.1321 C.ar    1  UNL1        0.0357
     10 C         139.5873  140.4322  167.5900 C.3     1  UNL1        0.1582
     11 C         140.6000  141.5013  167.3040 C.3     1  UNL1        0.2351
     12 O         141.0236  142.1004  168.6123 O.2     1  UNL1       -0.4478
     13 C         140.2728  141.4018  169.7069 C.2     1  UNL1        0.2770
     14 N         140.3892  141.6845  171.1754 N.pl3   1  UNL1       -0.3133
     15 N         139.3850  140.3708  169.0751 N.2     1  UNL1       -0.2202
     16 C         138.5923  139.3987  168.0280 C.3     1  UNL1        0.1174
     17 C         138.6776  139.4480  167.6212 C.3     1  UNL1        0.1502
     18 O         138.5880  139.3962  168.0488 O.3     1  UNL1       -0.3532
     19 C         138.6776  139.4480  167.6212 C.3     1  UNL1        0.1502
     20 H         141.0030  142.3849  171.4947 H       1  UNL1        0.1466
     21 H         139.8518  141.1696  171.8199 H       1  UNL1        0.1466
     22 C         142.1883  142.8525  163.7983 C.ar    1  UNL1        0.0460
     23 C         141.9327  144.3044  164.0753 C.ar    1  UNL1        0.0054
     24 C         142.9277  145.3379  163.6373 C.ar    1  UNL1        0.0208
     25 C         144.1782  144.9196  162.9223 C.ar    1  UNL1        0.1013
     26 N         144.4337  143.4678  162.6452 N.ar    1  UNL1       -0.2165
     27 C         143.4388  142.4342  163.0832 C.ar    1  UNL1        0.2222
     28 F         143.6943  140.9823  162.8062 F       1  UNL1       -0.1832
@<TRIPOS>BOND
     1     2     1    1
     2     2     3    1
     3     3     4    1
     4     4     5   ar
     5     5     6   ar
     6     6     7   ar
     7     7    22    1
     8    22    23   ar
     9    23    24   ar
    10    24    25   ar
    11    25    26   ar
    12    26    27   ar
    13    27    28    1
    14     7     8   ar
    15     8     9   ar
    16     9    10    1
    17    10    11    1
    18    11    12    1
    19    12    13    1
    20    13    14    1
    21    13    15    2
    22    10    16    1
    23    16    17    1
    24    17    18    1
    25    18    19    1
    26    16     2    1
    27     9     4   ar
    28    15    10    1
    29    19    16    1
    30    27    22   ar
    31    14    20    1
    32    14    21    1
@<TRIPOS>MOLECULE
*****
 28 32 0 0 0
SMALL
GASTEIGER

@<TRIPOS>ATOM
      1 C         141.1351  142.4213  170.6596 C.3     1  UNL1        0.0475
      2 C         141.2923  141.9252  169.2528 C.3     1  UNL1        0.1727
      3 O         142.0711  140.6721  168.9821 O.3     1  UNL1       -0.4792
      4 C         142.2284  140.1759  167.5753 C.ar    1  UNL1        0.1362
      5 C         143.0072  138.9228  167.3046 C.ar    1  UNL1        0.0366
      6 C         143.1644  138.4266  165.8979 C.ar    1  UNL1        0.0032
      7 C         142.5428  139.1835  164.7617 C.ar    1  UNL1        0.0036
      8 C         141.7640  140.4366  165.0324 C.ar    1  UNL1        0.0008
      9 C         141.6068  140.9328  166.4392 C.ar    1  UNL1        0.0357
     10 C         140.8280  142.1858  166.7099 C.3     1  UNL1        0.1582
     11 C         140.8998  141.8137  165.2585 C.3     1  UNL1        0.2351
     12 O         140.1416  142.8457  164.4773 O.2     1  UNL1       -0.4478
     13 C         139.6012  143.8556  165.4458 C.2     1  UNL1        0.2770
     14 N         138.7807  145.0615  165.0959 N.pl3   1  UNL1       -0.3133
     15 N         140.0254  143.4478  166.8257 N.2     1  UNL1       -0.2202
     16 C         140.6707  142.6820  168.1167 C.3     1  UNL1        0.1174
     17 C         140.8880  142.3324  168.0412 C.3     1  UNL1        0.1502
     18 O         140.6596  142.6999  168.1205 O.3     1  UNL1       -0.3532
     19 C         140.8880  142.3324  168.0412 C.3     1  UNL1        0.1502
     20 H         138.5522  145.2457  164.1562 H       1  UNL1        0.1466
     21 H         138.4706  145.6688  165.8060 H       1  UNL1        0.1466
     22 C         142.7000  138.6873  163.3549 C.ar    1  UNL1        0.0460
     23 C         143.9611  138.9741  162.5950 C.ar    1  UNL1        0.0054
     24 C         144.1183  138.4779  161.1882 C.ar    1  UNL1        0.0208
     25 C         143.0145  137.6949  160.5413 C.ar    1  UNL1        0.1013
     26 N         141.7535  137.4081  161.3012 N.ar    1  UNL1       -0.2165
     27 C         141.5962  137.9043  162.7080 C.ar    1  UNL1        0.2222
     28 F         140.3351  137.6175  163.4679 F       1  UNL1       -0.1832
@<TRIPOS>BOND
     1     2     1    1
     2     2     3    1
     3     3     4    1
     4     4     5   ar
     5     5     6   ar
     6     6     7   ar
     7     7    22    1
     8    22    23   ar
     9    23    24   ar
    10    24    25   ar
    11    25    26   ar
    12    26    27   ar
    13    27    28    1
    14     7     8   ar
    15     8     9   ar
    16     9    10    1
    17    10    11    1
    18    11    12    1
    19    12    13    1
    20    13    14    1
    21    13    15    2
    22    10    16    1
    23    16    17    1
    24    17    18    1
    25    18    19    1
    26    16     2    1
    27     9     4   ar
    28    15    10    1
    29    19    16    1
    30    27    22   ar
    31    14    20    1
    32    14    21    1
@<TRIPOS>MOLECULE
*****
 28 32 0 0 0
SMALL
GASTEIGER

@<TRIPOS>ATOM
      1 C         141.2662  144.9184  160.1662 C.3     1  UNL1        0.0475
      2 C         141.3406  144.2294  161.4965 C.3     1  UNL1        0.1727
      3 O         142.5873  144.3300  162.3245 O.3     1  UNL1       -0.4792
      4 C         142.6618  143.6411  163.6549 C.ar    1  UNL1        0.1362
      5 C         143.9085  143.7417  164.4828 C.ar    1  UNL1        0.0366
      6 C         143.9830  143.0528  165.8132 C.ar    1  UNL1        0.0032
      7 C         142.8106  142.2632  166.3156 C.ar    1  UNL1        0.0036
      8 C         141.5639  142.1626  165.4876 C.ar    1  UNL1        0.0008
      9 C         141.4895  142.8516  164.1572 C.ar    1  UNL1        0.0357
     10 C         140.2428  142.7510  163.3292 C.3     1  UNL1        0.1582
     11 C         140.1708  142.0121  164.6327 C.3     1  UNL1        0.2351
     12 O         138.8201  141.3661  164.7253 O.2     1  UNL1       -0.4478
     13 C         138.0574  141.7058  163.4792 C.2     1  UNL1        0.2770
     14 N         136.6606  141.2667  163.1532 N.pl3   1  UNL1       -0.3133
     15 N         138.9366  142.5617  162.6164 N.2     1  UNL1       -0.2202
     16 C         140.1683  143.4399  161.9989 C.3     1  UNL1        0.1174
     17 C         140.5162  143.4680  162.2299 C.3     1  UNL1        0.1502
     18 O         140.1506  143.4385  161.9871 O.3     1  UNL1       -0.3532
     19 C         140.5162  143.4680  162.2299 C.3     1  UNL1        0.1502
     20 H         136.1614  140.7027  163.7871 H       1  UNL1        0.1466
     21 H         136.2432  141.5426  162.3054 H       1  UNL1        0.1466
     22 C         142.8851  141.5743  167.6459 C.ar    1  UNL1        0.0460
     23 C         143.0901  142.3776  168.8961 C.ar    1  UNL1        0.0054
     24 C         143.1645  141.6887  170.2264 C.ar    1  UNL1        0.0208
     25 C         143.0340  140.1965  170.3066 C.ar    1  UNL1        0.1013
     26 N         142.8290  139.3933  169.0566 N.ar    1  UNL1       -0.2165
     27 C         142.7546  140.0822  167.7261 C.ar    1  UNL1        0.2222
     28 F         142.5496  139.2789  166.4761 F       1  UNL1       -0.1832
@<TRIPOS>BOND
     1     2     1    1
     2     2     3    1
     3     3     4    1
     4     4     5   ar
     5     5     6   ar
     6     6     7   ar
     7     7    22    1
     8    22    23   ar
     9    23    24   ar
    10    24    25   ar
    11    25    26   ar
    12    26    27   ar
    13    27    28    1
    14     7     8   ar
    15     8     9   ar
    16     9    10    1
    17    10    11    1
    18    11    12    1
    19    12    13    1
    20    13    14    1
    21    13    15    2
    22    10    16    1
    23    16    17    1
    24    17    18    1
    25    18    19    1
    26    16     2    1
    27     9     4   ar
    28    15    10    1
    29    19    16    1
    30    27    22   ar
    31    14    20    1
    32    14    21    1
@<TRIPOS>MOLECULE
*****
 28 32 0 0 0
SMALL
GASTEIGER

@<TRIPOS>ATOM
      1 C         139.8041  146.2485  160.5003 C.3     1  UNL1        0.0475
      2 C         140.3037  145.4161  161.6438 C.3     1  UNL1        0.1727
      3 O         139.4843  145.2901  162.8939 O.3     1  UNL1       -0.4792
      4 C         139.9838  144.4577  164.0373 C.ar    1  UNL1        0.1362
      5 C         139.1645  144.3317  165.2874 C.ar    1  UNL1        0.0366
      6 C         139.6640  143.4992  166.4309 C.ar    1  UNL1        0.0032
      7 C         140.9829  142.7927  166.3243 C.ar    1  UNL1        0.0036
      8 C         141.8023  142.9187  165.0742 C.ar    1  UNL1        0.0008
      9 C         141.3027  143.7512  163.9307 C.ar    1  UNL1        0.0357
     10 C         142.1221  143.8772  162.6806 C.3     1  UNL1        0.1582
     11 C         142.7480  143.0142  163.7359 C.3     1  UNL1        0.2351
     12 O         144.0595  142.5134  163.2074 O.2     1  UNL1       -0.4478
     13 C         144.2441  143.0667  161.8255 C.2     1  UNL1        0.2770
     14 N         145.4197  142.8204  160.9270 N.pl3   1  UNL1       -0.3133
     15 N         143.0468  143.9096  161.4999 N.2     1  UNL1       -0.2202
     16 C         141.6226  144.7096  161.5371 C.3     1  UNL1        0.1174
     17 C         141.3940  144.6745  161.8859 C.3     1  UNL1        0.1502
     18 O         141.6343  144.7114  161.5193 O.3     1  UNL1       -0.3532
     19 C         141.3940  144.6745  161.8859 C.3     1  UNL1        0.1502
     20 H         146.1612  142.2491  161.2320 H       1  UNL1        0.1466
     21 H         145.4498  143.2301  160.0323 H       1  UNL1        0.1466
     22 C         141.4824  141.9603  167.4677 C.ar    1  UNL1        0.0460
     23 C         142.7276  142.3630  168.2008 C.ar    1  UNL1        0.0054
     24 C         143.2271  141.5306  169.3443 C.ar    1  UNL1        0.0208
     25 C         142.4815  140.2955  169.7547 C.ar    1  UNL1        0.1013
     26 N         141.2364  139.8927  169.0216 N.ar    1  UNL1       -0.2165
     27 C         140.7368  140.7252  167.8781 C.ar    1  UNL1        0.2222
     28 F         139.4917  140.3224  167.1451 F       1  UNL1       -0.1832
@<TRIPOS>BOND
     1     2     1    1
     2     2     3    1
     3     3     4    1
     4     4     5   ar
     5     5     6   ar
     6     6     7   ar
     7     7    22    1
     8    22    23   ar
     9    23    24   ar
    10    24    25   ar
    11    25    26   ar
    12    26    27   ar
    13    27    28    1
    14     7     8   ar
    15     8     9   ar
    16     9    10    1
    17    10    11    1
    18    11    12    1
    19    12    13    1
    20    13    14    1
    21    13    15    2
    22    10    16    1
    23    16    17    1
    24    17    18    1
    25    18    19    1
    26    16     2    1
    27     9     4   ar
    28    15    10    1
    29    19    16    1
    30    27    22   ar
    31    14    20    1
    32    14    21    1
