@<TRIPOS>MOLECULE
*****
 45 48 0 0 0
SMALL
GASTEIGER

@<TRIPOS>ATOM
      1 C         141.3562  144.7729  162.0319 C.3     1  UNL1        0.0412
      2 C         140.7901  145.4136  160.7994 C.3     1  UNL1        0.0249
      3 C         141.3647  144.7101  159.6057 C.3     1  UNL1        0.0935
      4 N         142.2859  143.6346  160.1004 N.am    1  UNL1       -0.2795
      5 C         143.0739  142.6867  159.2457 C.2     1  UNL1        0.2256
      6 O         142.9777  142.7677  157.7510 O.2     1  UNL1       -0.2749
      7 C         142.2806  143.6734  161.5999 C.3     1  UNL1        0.0951
      8 C         141.0514  145.1631  163.4478 C.3     1  UNL1        0.0914
      9 C         139.7081  143.2900  164.6465 C.2     1  UNL1        0.2458
     10 O         138.5543  143.5224  163.7167 O.2     1  UNL1       -0.2701
     11 N         140.9567  144.1103  164.5121 N.am    1  UNL1       -0.3008
     12 H         141.7140  143.9578  165.1224 H       1  UNL1        0.1497
     13 C         139.0306  139.8091  166.4283 C.ar    1  UNL1       -0.0230
     14 C         139.1253  140.8619  165.3641 C.ar    1  UNL1        0.0002
     15 C         139.6134  142.2372  165.7109 C.ar    1  UNL1        0.0527
     16 C         140.0067  142.5598  167.1220 C.ar    1  UNL1        0.0002
     17 C         139.9120  141.5070  168.1862 C.ar    1  UNL1       -0.0230
     18 C         139.4239  140.1317  167.8394 C.ar    1  UNL1       -0.0086
     19 C         137.5967  138.4760  167.2450 C.3     1  UNL1        0.0044
     20 C         138.5425  138.4338  166.0815 C.3     1  UNL1        0.0189
     21 C         139.4883  138.3916  164.9180 C.3     1  UNL1        0.0044
     22 C         138.0544  137.0585  165.7347 C.3     1  UNL1        0.0044
     23 C         140.3054  141.8295  169.5974 C.3     1  UNL1        0.0189
     24 C         140.4941  143.2679  169.2161 C.3     1  UNL1        0.0044
     25 C         140.1166  140.3912  169.9787 C.3     1  UNL1        0.0044
     26 C         140.6987  142.1520  171.0085 C.3     1  UNL1        0.0044
     27 C         143.9581  141.6580  159.8856 C.3     1  UNL1        0.0853
     28 C         143.7492  140.2020  159.5917 C.3     1  UNL1        0.0096
     29 C         144.0462  139.1744  160.6432 C.3     1  UNL1        0.0012
     30 C         144.1198  139.5775  162.0863 C.3     1  UNL1        0.0087
     31 C         142.8628  139.7017  162.8953 C.3     1  UNL1        0.0446
     32 C         141.5256  139.6188  162.2208 C.ar    1  UNL1       -0.0183
     33 C         140.9928  138.2902  161.7725 C.ar    1  UNL1       -0.0017
     34 C         139.6556  138.2072  161.0980 C.ar    1  UNL1        0.0293
     35 C         138.8512  139.4528  160.8718 C.ar    1  UNL1        0.1401
     36 F         137.5139  139.3699  160.1973 F       1  UNL1       -0.2042
     37 C         139.3839  140.7815  161.3201 C.ar    1  UNL1        0.0293
     38 C         140.7211  140.8644  161.9946 C.ar    1  UNL1       -0.0017
     39 C         142.9430  139.9089  164.3788 C.ar    1  UNL1       -0.0183
     40 C         142.8753  138.7311  165.3053 C.ar    1  UNL1       -0.0017
     41 C         142.9556  138.9383  166.7887 C.ar    1  UNL1        0.0293
     42 C         143.1036  140.3232  167.3457 C.ar    1  UNL1        0.1401
     43 F         143.1839  140.5304  168.8291 F       1  UNL1       -0.2042
     44 C         143.1713  141.5009  166.4192 C.ar    1  UNL1        0.0293
     45 C         143.0911  141.2938  164.9357 C.ar    1  UNL1       -0.0017
@<TRIPOS>BOND
     1    19    20    1
     2    20    21    1
     3    20    22    1
     4    20    13    1
     5    13    14   ar
     6    14    15   ar
     7    15     9    1
     8     9    10    2
     9     9    11   am
    10    11     8    1
    11     1     8    1
    12     1     2    1
    13     2     3    1
    14     3     4    1
    15     4     5   am
    16     5     6    2
    17     5    27    1
    18    27    28    1
    19    28    29    1
    20    29    30    1
    21    30    31    1
    22    31    32    1
    23    32    33   ar
    24    33    34   ar
    25    34    35   ar
    26    35    36    1
    27    35    37   ar
    28    37    38   ar
    29    31    39    1
    30    39    40   ar
    31    40    41   ar
    32    41    42   ar
    33    42    43    1
    34    42    44   ar
    35    44    45   ar
    36     4     7    1
    37    15    16   ar
    38    16    17   ar
    39    17    23    1
    40    23    24    1
    41    23    25    1
    42    23    26    1
    43    17    18   ar
    44    18    13   ar
    45     7     1    1
    46    38    32   ar
    47    45    39   ar
    48    11    12    1
@<TRIPOS>MOLECULE
*****
 45 48 0 0 0
SMALL
GASTEIGER

@<TRIPOS>ATOM
      1 C         139.5938  144.7025  161.7562 C.3     1  UNL1        0.0412
      2 C         140.4735  145.4630  160.8086 C.3     1  UNL1        0.0249
      3 C         140.5095  144.7157  159.5085 C.3     1  UNL1        0.0935
      4 N         139.6521  143.4933  159.6526 N.am    1  UNL1       -0.2795
      5 C         139.4042  142.4604  158.5935 C.2     1  UNL1        0.2256
      6 O         140.0420  142.6026  157.2434 O.2     1  UNL1       -0.2749
      7 C         139.0862  143.4852  161.0417 C.3     1  UNL1        0.0951
      8 C         139.2773  145.0911  163.1700 C.3     1  UNL1        0.0914
      9 C         140.8581  143.8041  164.7808 C.2     1  UNL1        0.2458
     10 O         142.0421  144.4919  164.1685 O.2     1  UNL1       -0.2701
     11 N         139.4757  144.1037  164.2816 N.am    1  UNL1       -0.3008
     12 H         138.6986  143.6523  164.6835 H       1  UNL1        0.1497
     13 C         140.6202  142.0687  168.3419 C.ar    1  UNL1       -0.0230
     14 C         140.4219  143.0561  167.2304 C.ar    1  UNL1        0.0002
     15 C         141.0564  142.8166  165.8924 C.ar    1  UNL1        0.0527
     16 C         141.8892  141.5898  165.6661 C.ar    1  UNL1        0.0002
     17 C         142.0875  140.6024  166.7776 C.ar    1  UNL1       -0.0230
     18 C         141.4530  140.8418  168.1156 C.ar    1  UNL1       -0.0086
     19 C         140.3779  143.7541  169.6071 C.3     1  UNL1        0.0044
     20 C         139.9857  142.3081  169.6799 C.3     1  UNL1        0.0189
     21 C         139.5936  140.8621  169.7527 C.3     1  UNL1        0.0044
     22 C         139.3512  142.5475  171.0178 C.3     1  UNL1        0.0044
     23 C         142.9203  139.3755  166.5513 C.3     1  UNL1        0.0189
     24 C         143.1020  139.7639  165.1140 C.3     1  UNL1        0.0044
     25 C         142.7386  138.9871  167.9887 C.3     1  UNL1        0.0044
     26 C         143.7531  138.1486  166.3251 C.3     1  UNL1        0.0044
     27 C         138.5184  141.2855  158.8846 C.3     1  UNL1        0.0853
     28 C         139.1094  139.9119  159.0029 C.3     1  UNL1        0.0096
     29 C         138.7062  139.0171  160.1373 C.3     1  UNL1        0.0012
     30 C         139.7558  138.3708  160.9922 C.3     1  UNL1        0.0087
     31 C         140.3877  139.1403  162.1142 C.3     1  UNL1        0.0446
     32 C         141.6414  139.9270  161.8711 C.ar    1  UNL1       -0.0183
     33 C         141.6088  141.4257  161.9264 C.ar    1  UNL1       -0.0017
     34 C         142.8625  142.2126  161.6833 C.ar    1  UNL1        0.0293
     35 C         144.1487  141.5008  161.3851 C.ar    1  UNL1        0.1401
     36 F         145.4025  142.2877  161.1420 F       1  UNL1       -0.2042
     37 C         144.1813  140.0022  161.3299 C.ar    1  UNL1        0.0293
     38 C         142.9276  139.2153  161.5729 C.ar    1  UNL1       -0.0017
     39 C         139.7658  139.1228  163.4791 C.ar    1  UNL1       -0.0183
     40 C         138.9429  140.2879  163.9433 C.ar    1  UNL1       -0.0017
     41 C         138.3210  140.2705  165.3082 C.ar    1  UNL1        0.0293
     42 C         138.5220  139.0879  166.2089 C.ar    1  UNL1        0.1401
     43 F         137.9002  139.0705  167.5738 F       1  UNL1       -0.2042
     44 C         139.3449  137.9229  165.7447 C.ar    1  UNL1        0.0293
     45 C         139.9668  137.9403  164.3798 C.ar    1  UNL1       -0.0017
@<TRIPOS>BOND
     1    19    20    1
     2    20    21    1
     3    20    22    1
     4    20    13    1
     5    13    14   ar
     6    14    15   ar
     7    15     9    1
     8     9    10    2
     9     9    11   am
    10    11     8    1
    11     1     8    1
    12     1     2    1
    13     2     3    1
    14     3     4    1
    15     4     5   am
    16     5     6    2
    17     5    27    1
    18    27    28    1
    19    28    29    1
    20    29    30    1
    21    30    31    1
    22    31    32    1
    23    32    33   ar
    24    33    34   ar
    25    34    35   ar
    26    35    36    1
    27    35    37   ar
    28    37    38   ar
    29    31    39    1
    30    39    40   ar
    31    40    41   ar
    32    41    42   ar
    33    42    43    1
    34    42    44   ar
    35    44    45   ar
    36     4     7    1
    37    15    16   ar
    38    16    17   ar
    39    17    23    1
    40    23    24    1
    41    23    25    1
    42    23    26    1
    43    17    18   ar
    44    18    13   ar
    45     7     1    1
    46    38    32   ar
    47    45    39   ar
    48    11    12    1
@<TRIPOS>MOLECULE
*****
 45 48 0 0 0
SMALL
GASTEIGER

@<TRIPOS>ATOM
      1 C         140.2672  144.4081  161.2648 C.3     1  UNL1        0.0412
      2 C         140.0715  144.8129  159.8338 C.3     1  UNL1        0.0249
      3 C         141.2656  144.3490  159.0534 C.3     1  UNL1        0.0935
      4 N         142.1993  143.6576  160.0021 N.am    1  UNL1       -0.2795
      5 C         143.5184  143.0383  159.6466 C.2     1  UNL1        0.2256
      6 O         144.0085  143.0793  158.2296 O.2     1  UNL1       -0.2749
      7 C         141.5822  143.6941  161.3688 C.3     1  UNL1        0.0951
      8 C         139.3150  144.6712  162.3936 C.3     1  UNL1        0.0914
      9 C         140.0369  143.5114  164.6035 C.2     1  UNL1        0.2458
     10 O         141.2070  144.4437  164.7106 O.2     1  UNL1       -0.2701
     11 N         139.0909  143.6251  163.4449 N.am    1  UNL1       -0.3008
     12 H         138.3229  143.0132  163.3747 H       1  UNL1        0.1497
     13 C         139.7554  141.7653  168.1562 C.ar    1  UNL1       -0.0230
     14 C         139.9796  142.8113  167.1048 C.ar    1  UNL1        0.0002
     15 C         139.8127  142.4652  165.6549 C.ar    1  UNL1        0.0527
     16 C         139.4217  141.0730  165.2563 C.ar    1  UNL1        0.0002
     17 C         139.1976  140.0270  166.3077 C.ar    1  UNL1       -0.0230
     18 C         139.3644  140.3731  167.7577 C.ar    1  UNL1       -0.0086
     19 C         139.4994  140.7233  169.9862 C.3     1  UNL1        0.0044
     20 C         139.9223  142.1114  169.6062 C.3     1  UNL1        0.0189
     21 C         140.3452  143.4995  169.2261 C.3     1  UNL1        0.0044
     22 C         140.0891  142.4575  171.0561 C.3     1  UNL1        0.0044
     23 C         138.8065  138.6347  165.9092 C.3     1  UNL1        0.0189
     24 C         137.7411  138.6317  166.9649 C.3     1  UNL1        0.0044
     25 C         139.8720  138.6377  164.8534 C.3     1  UNL1        0.0044
     26 C         138.4156  137.2425  165.5106 C.3     1  UNL1        0.0044
     27 C         144.3474  142.3782  160.7081 C.3     1  UNL1        0.0853
     28 C         144.9383  143.1983  161.8165 C.3     1  UNL1        0.0096
     29 C         145.1599  142.5848  163.1672 C.3     1  UNL1        0.0012
     30 C         144.0861  142.6630  164.2118 C.3     1  UNL1        0.0087
     31 C         143.3833  141.4158  164.6596 C.3     1  UNL1        0.0446
     32 C         142.8263  140.4630  163.6439 C.ar    1  UNL1       -0.0183
     33 C         141.7091  140.8970  162.7419 C.ar    1  UNL1       -0.0017
     34 C         141.1521  139.9442  161.7261 C.ar    1  UNL1        0.0293
     35 C         141.7123  138.5574  161.6122 C.ar    1  UNL1        0.1401
     36 F         141.1553  137.6046  160.5963 F       1  UNL1       -0.2042
     37 C         142.8296  138.1234  162.5141 C.ar    1  UNL1        0.0293
     38 C         143.3866  139.0762  163.5299 C.ar    1  UNL1       -0.0017
     39 C         143.2374  141.1215  166.1233 C.ar    1  UNL1       -0.0183
     40 C         142.8729  139.7392  166.5777 C.ar    1  UNL1       -0.0017
     41 C         142.7271  139.4450  168.0413 C.ar    1  UNL1        0.0293
     42 C         142.9457  140.5330  169.0505 C.ar    1  UNL1        0.1401
     43 F         142.7999  140.2388  170.5141 F       1  UNL1       -0.2042
     44 C         143.3102  141.9153  168.5961 C.ar    1  UNL1        0.0293
     45 C         143.4561  142.2095  167.1324 C.ar    1  UNL1       -0.0017
@<TRIPOS>BOND
     1    19    20    1
     2    20    21    1
     3    20    22    1
     4    20    13    1
     5    13    14   ar
     6    14    15   ar
     7    15     9    1
     8     9    10    2
     9     9    11   am
    10    11     8    1
    11     1     8    1
    12     1     2    1
    13     2     3    1
    14     3     4    1
    15     4     5   am
    16     5     6    2
    17     5    27    1
    18    27    28    1
    19    28    29    1
    20    29    30    1
    21    30    31    1
    22    31    32    1
    23    32    33   ar
    24    33    34   ar
    25    34    35   ar
    26    35    36    1
    27    35    37   ar
    28    37    38   ar
    29    31    39    1
    30    39    40   ar
    31    40    41   ar
    32    41    42   ar
    33    42    43    1
    34    42    44   ar
    35    44    45   ar
    36     4     7    1
    37    15    16   ar
    38    16    17   ar
    39    17    23    1
    40    23    24    1
    41    23    25    1
    42    23    26    1
    43    17    18   ar
    44    18    13   ar
    45     7     1    1
    46    38    32   ar
    47    45    39   ar
    48    11    12    1
@<TRIPOS>MOLECULE
*****
 45 48 0 0 0
SMALL
GASTEIGER

@<TRIPOS>ATOM
      1 C         140.3072  144.9999  160.7636 C.3     1  UNL1        0.0412
      2 C         140.9046  145.6713  159.5626 C.3     1  UNL1        0.0249
      3 C         140.4784  144.9069  158.3443 C.3     1  UNL1        0.0935
      4 N         139.6176  143.7631  158.7924 N.am    1  UNL1       -0.2795
      5 C         138.9754  142.7412  157.9017 C.2     1  UNL1        0.2256
      6 O         139.1717  142.8117  156.4163 O.2     1  UNL1       -0.2749
      7 C         139.5118  143.8206  160.2875 C.3     1  UNL1        0.0951
      8 C         140.4756  145.4320  162.1901 C.3     1  UNL1        0.0914
      9 C         140.0733  143.8711  164.2276 C.2     1  UNL1        0.2458
     10 O         138.6203  144.2437  164.2263 O.2     1  UNL1       -0.2701
     11 N         141.0009  144.4653  163.2095 N.am    1  UNL1       -0.3008
     12 H         141.9545  144.2207  163.2104 H       1  UNL1        0.1497
     13 C         142.1592  140.9246  165.8760 C.ar    1  UNL1       -0.0230
     14 C         141.6338  141.8914  164.8566 C.ar    1  UNL1        0.0002
     15 C         140.5987  142.9043  165.2471 C.ar    1  UNL1        0.0527
     16 C         140.0890  142.9505  166.6571 C.ar    1  UNL1        0.0002
     17 C         140.6144  141.9837  167.6765 C.ar    1  UNL1       -0.0230
     18 C         141.6495  140.9708  167.2859 C.ar    1  UNL1       -0.0086
     19 C         142.2822  138.8076  165.9315 C.3     1  UNL1        0.0044
     20 C         143.1943  139.9117  165.4854 C.3     1  UNL1        0.0189
     21 C         144.1065  141.0158  165.0393 C.3     1  UNL1        0.0044
     22 C         144.2294  138.8988  165.0949 C.3     1  UNL1        0.0044
     23 C         140.1048  142.0298  169.0865 C.3     1  UNL1        0.0189
     24 C         140.3721  143.5050  169.1350 C.3     1  UNL1        0.0044
     25 C         139.8374  140.5547  169.0381 C.3     1  UNL1        0.0044
     26 C         139.5951  142.0759  170.4965 C.3     1  UNL1        0.0044
     27 C         138.1369  141.6490  158.4964 C.3     1  UNL1        0.0853
     28 C         138.7740  140.3560  158.9115 C.3     1  UNL1        0.0096
     29 C         138.2030  139.5718  160.0556 C.3     1  UNL1        0.0012
     30 C         139.0740  138.6207  160.8218 C.3     1  UNL1        0.0087
     31 C         139.8576  139.1082  162.0044 C.3     1  UNL1        0.0446
     32 C         141.1984  139.7496  161.8028 C.ar    1  UNL1       -0.0183
     33 C         142.4455  138.9191  161.8751 C.ar    1  UNL1       -0.0017
     34 C         143.7864  139.5604  161.6736 C.ar    1  UNL1        0.0293
     35 C         143.8802  141.0322  161.3997 C.ar    1  UNL1        0.1401
     36 F         145.2212  141.6736  161.1981 F       1  UNL1       -0.2042
     37 C         142.6332  141.8627  161.3273 C.ar    1  UNL1        0.0293
     38 C         141.2922  141.2213  161.5289 C.ar    1  UNL1       -0.0017
     39 C         139.3002  138.9542  163.3885 C.ar    1  UNL1       -0.0183
     40 C         138.6587  140.1245  164.0732 C.ar    1  UNL1       -0.0017
     41 C         138.1013  139.9705  165.4572 C.ar    1  UNL1        0.0293
     42 C         138.1855  138.6462  166.1566 C.ar    1  UNL1        0.1401
     43 F         137.6281  138.4922  167.5406 F       1  UNL1       -0.2042
     44 C         138.8270  137.4759  165.4719 C.ar    1  UNL1        0.0293
     45 C         139.3844  137.6298  164.0878 C.ar    1  UNL1       -0.0017
@<TRIPOS>BOND
     1    19    20    1
     2    20    21    1
     3    20    22    1
     4    20    13    1
     5    13    14   ar
     6    14    15   ar
     7    15     9    1
     8     9    10    2
     9     9    11   am
    10    11     8    1
    11     1     8    1
    12     1     2    1
    13     2     3    1
    14     3     4    1
    15     4     5   am
    16     5     6    2
    17     5    27    1
    18    27    28    1
    19    28    29    1
    20    29    30    1
    21    30    31    1
    22    31    32    1
    23    32    33   ar
    24    33    34   ar
    25    34    35   ar
    26    35    36    1
    27    35    37   ar
    28    37    38   ar
    29    31    39    1
    30    39    40   ar
    31    40    41   ar
    32    41    42   ar
    33    42    43    1
    34    42    44   ar
    35    44    45   ar
    36     4     7    1
    37    15    16   ar
    38    16    17   ar
    39    17    23    1
    40    23    24    1
    41    23    25    1
    42    23    26    1
    43    17    18   ar
    44    18    13   ar
    45     7     1    1
    46    38    32   ar
    47    45    39   ar
    48    11    12    1
@<TRIPOS>MOLECULE
*****
 45 48 0 0 0
SMALL
GASTEIGER

@<TRIPOS>ATOM
      1 C         141.0622  145.0890  161.8963 C.3     1  UNL1        0.0412
      2 C         140.1201  145.8278  160.9927 C.3     1  UNL1        0.0249
      3 C         140.3356  145.3325  159.5933 C.3     1  UNL1        0.0935
      4 N         141.4110  144.2875  159.6321 N.am    1  UNL1       -0.2795
      5 C         141.9438  143.5266  158.4543 C.2     1  UNL1        0.2256
      6 O         141.3943  143.7860  157.0829 O.2     1  UNL1       -0.2749
      7 C         141.8601  144.1370  161.0553 C.3     1  UNL1        0.0951
      8 C         141.1850  145.2703  163.3802 C.3     1  UNL1        0.0914
      9 C         139.9950  143.7694  165.1356 C.2     1  UNL1        0.2458
     10 O         138.7912  144.6627  165.0833 O.2     1  UNL1       -0.2701
     11 N         141.1919  144.0732  164.2840 N.am    1  UNL1       -0.3008
     12 H         141.9821  143.4869  164.3183 H       1  UNL1        0.1497
     13 C         140.4458  141.5162  168.3713 C.ar    1  UNL1       -0.0230
     14 C         140.4388  142.7133  167.4674 C.ar    1  UNL1        0.0002
     15 C         140.0020  142.5723  166.0394 C.ar    1  UNL1        0.0527
     16 C         139.5721  141.2342  165.5152 C.ar    1  UNL1        0.0002
     17 C         139.5791  140.0372  166.4190 C.ar    1  UNL1       -0.0230
     18 C         140.0160  140.1782  167.8471 C.ar    1  UNL1       -0.0086
     19 C         140.5454  140.2163  170.0447 C.3     1  UNL1        0.0044
     20 C         140.8827  141.6572  169.7993 C.3     1  UNL1        0.0189
     21 C         141.2199  143.0980  169.5539 C.3     1  UNL1        0.0044
     22 C         141.3195  141.7981  171.2273 C.3     1  UNL1        0.0044
     23 C         139.1493  138.6991  165.8948 C.3     1  UNL1        0.0189
     24 C         140.4716  138.5449  165.2039 C.3     1  UNL1        0.0044
     25 C         137.8269  138.8532  166.5858 C.3     1  UNL1        0.0044
     26 C         138.7194  137.3610  165.3707 C.3     1  UNL1        0.0044
     27 C         143.0262  142.5063  158.6479 C.3     1  UNL1        0.0853
     28 C         142.6703  141.0951  159.0108 C.3     1  UNL1        0.0096
     29 C         143.7492  140.1214  159.3824 C.3     1  UNL1        0.0012
     30 C         143.8950  139.6707  160.8057 C.3     1  UNL1        0.0087
     31 C         142.9553  140.1855  161.8554 C.3     1  UNL1        0.0446
     32 C         141.5144  139.7690  161.8415 C.ar    1  UNL1       -0.0183
     33 C         140.4339  140.8021  161.9648 C.ar    1  UNL1       -0.0017
     34 C         138.9929  140.3856  161.9509 C.ar    1  UNL1        0.0293
     35 C         138.6325  138.9360  161.8138 C.ar    1  UNL1        0.1401
     36 F         137.1915  138.5195  161.7999 F       1  UNL1       -0.2042
     37 C         139.7131  137.9029  161.6905 C.ar    1  UNL1        0.0293
     38 C         141.1540  138.3194  161.7044 C.ar    1  UNL1       -0.0017
     39 C         143.4566  141.1170  162.9190 C.ar    1  UNL1       -0.0183
     40 C         144.2890  142.3067  162.5426 C.ar    1  UNL1       -0.0017
     41 C         144.7903  143.2381  163.6062 C.ar    1  UNL1        0.0293
     42 C         144.4592  142.9797  165.0462 C.ar    1  UNL1        0.1401
     43 F         144.9605  143.9111  166.1098 F       1  UNL1       -0.2042
     44 C         143.6268  141.7901  165.4226 C.ar    1  UNL1        0.0293
     45 C         143.1254  140.8586  164.3590 C.ar    1  UNL1       -0.0017
@<TRIPOS>BOND
     1    19    20    1
     2    20    21    1
     3    20    22    1
     4    20    13    1
     5    13    14   ar
     6    14    15   ar
     7    15     9    1
     8     9    10    2
     9     9    11   am
    10    11     8    1
    11     1     8    1
    12     1     2    1
    13     2     3    1
    14     3     4    1
    15     4     5   am
    16     5     6    2
    17     5    27    1
    18    27    28    1
    19    28    29    1
    20    29    30    1
    21    30    31    1
    22    31    32    1
    23    32    33   ar
    24    33    34   ar
    25    34    35   ar
    26    35    36    1
    27    35    37   ar
    28    37    38   ar
    29    31    39    1
    30    39    40   ar
    31    40    41   ar
    32    41    42   ar
    33    42    43    1
    34    42    44   ar
    35    44    45   ar
    36     4     7    1
    37    15    16   ar
    38    16    17   ar
    39    17    23    1
    40    23    24    1
    41    23    25    1
    42    23    26    1
    43    17    18   ar
    44    18    13   ar
    45     7     1    1
    46    38    32   ar
    47    45    39   ar
    48    11    12    1
@<TRIPOS>MOLECULE
*****
 45 48 0 0 0
SMALL
GASTEIGER

@<TRIPOS>ATOM
      1 C         140.3524  145.0500  160.7765 C.3     1  UNL1        0.0412
      2 C         140.9331  145.7197  159.5664 C.3     1  UNL1        0.0249
      3 C         140.5118  144.9384  158.3572 C.3     1  UNL1        0.0935
      4 N         139.6707  143.7858  158.8200 N.am    1  UNL1       -0.2795
      5 C         139.0391  142.7467  157.9419 C.2     1  UNL1        0.2256
      6 O         139.2261  142.8071  156.4548 O.2     1  UNL1       -0.2749
      7 C         139.5723  143.8548  160.3152 C.3     1  UNL1        0.0951
      8 C         140.5222  145.4970  162.1982 C.3     1  UNL1        0.0914
      9 C         140.1296  143.8491  164.1681 C.2     1  UNL1        0.2458
     10 O         138.6536  144.1033  164.0866 O.2     1  UNL1       -0.2701
     11 N         141.0639  144.5460  163.2239 N.am    1  UNL1       -0.3008
     12 H         142.0327  144.3792  163.2774 H       1  UNL1        0.1497
     13 C         142.2785  140.9615  165.8397 C.ar    1  UNL1       -0.0230
     14 C         141.7367  141.9126  164.8141 C.ar    1  UNL1        0.0002
     15 C         140.6714  142.8980  165.1937 C.ar    1  UNL1        0.0527
     16 C         140.1480  142.9324  166.5990 C.ar    1  UNL1        0.0002
     17 C         140.6898  141.9814  167.6246 C.ar    1  UNL1       -0.0230
     18 C         141.7551  140.9959  167.2449 C.ar    1  UNL1       -0.0086
     19 C         142.5182  138.8627  166.0335 C.3     1  UNL1        0.0044
     20 C         143.3437  139.9761  165.4600 C.3     1  UNL1        0.0189
     21 C         144.1693  141.0894  164.8865 C.3     1  UNL1        0.0044
     22 C         144.4090  138.9906  165.0803 C.3     1  UNL1        0.0044
     23 C         140.1664  142.0157  169.0299 C.3     1  UNL1        0.0189
     24 C         139.8769  140.5457  168.9581 C.3     1  UNL1        0.0044
     25 C         140.4558  143.4857  169.1018 C.3     1  UNL1        0.0044
     26 C         139.6430  142.0501  170.4352 C.3     1  UNL1        0.0044
     27 C         138.2204  141.6472  158.5508 C.3     1  UNL1        0.0853
     28 C         138.8007  140.2714  158.6941 C.3     1  UNL1        0.0096
     29 C         138.4321  139.4211  159.8736 C.3     1  UNL1        0.0012
     30 C         139.4894  138.6357  160.5916 C.3     1  UNL1        0.0087
     31 C         140.1756  139.2222  161.7896 C.3     1  UNL1        0.0446
     32 C         139.5493  139.1002  163.1471 C.ar    1  UNL1       -0.0183
     33 C         139.6798  137.8219  163.9211 C.ar    1  UNL1       -0.0017
     34 C         139.0536  137.6998  165.2786 C.ar    1  UNL1        0.0293
     35 C         138.2968  138.8560  165.8621 C.ar    1  UNL1        0.1401
     36 F         137.6705  138.7339  167.2197 F       1  UNL1       -0.2042
     37 C         138.1663  140.1343  165.0881 C.ar    1  UNL1        0.0293
     38 C         138.7926  140.2564  163.7306 C.ar    1  UNL1       -0.0017
     39 C         141.4881  139.9308  161.6300 C.ar    1  UNL1       -0.0183
     40 C         142.7711  139.1561  161.6927 C.ar    1  UNL1       -0.0017
     41 C         144.0835  139.8646  161.5330 C.ar    1  UNL1        0.0293
     42 C         144.1130  141.3478  161.3108 C.ar    1  UNL1        0.1401
     43 F         145.4254  142.0563  161.1512 F       1  UNL1       -0.2042
     44 C         142.8300  142.1224  161.2482 C.ar    1  UNL1        0.0293
     45 C         141.5175  141.4139  161.4078 C.ar    1  UNL1       -0.0017
@<TRIPOS>BOND
     1    19    20    1
     2    20    21    1
     3    20    22    1
     4    20    13    1
     5    13    14   ar
     6    14    15   ar
     7    15     9    1
     8     9    10    2
     9     9    11   am
    10    11     8    1
    11     1     8    1
    12     1     2    1
    13     2     3    1
    14     3     4    1
    15     4     5   am
    16     5     6    2
    17     5    27    1
    18    27    28    1
    19    28    29    1
    20    29    30    1
    21    30    31    1
    22    31    32    1
    23    32    33   ar
    24    33    34   ar
    25    34    35   ar
    26    35    36    1
    27    35    37   ar
    28    37    38   ar
    29    31    39    1
    30    39    40   ar
    31    40    41   ar
    32    41    42   ar
    33    42    43    1
    34    42    44   ar
    35    44    45   ar
    36     4     7    1
    37    15    16   ar
    38    16    17   ar
    39    17    23    1
    40    23    24    1
    41    23    25    1
    42    23    26    1
    43    17    18   ar
    44    18    13   ar
    45     7     1    1
    46    38    32   ar
    47    45    39   ar
    48    11    12    1
@<TRIPOS>MOLECULE
*****
 45 48 0 0 0
SMALL
GASTEIGER

@<TRIPOS>ATOM
      1 C         140.9566  145.1280  161.8071 C.3     1  UNL1        0.0412
      2 C         140.0711  145.8941  160.8695 C.3     1  UNL1        0.0249
      3 C         140.3606  145.4277  159.4735 C.3     1  UNL1        0.0935
      4 N         141.4250  144.3735  159.5483 N.am    1  UNL1       -0.2795
      5 C         142.0171  143.6342  158.3852 C.2     1  UNL1        0.2256
      6 O         141.5463  143.9280  156.9916 O.2     1  UNL1       -0.2749
      7 C         141.7933  144.1883  160.9906 C.3     1  UNL1        0.0951
      8 C         140.9980  145.2758  163.2992 C.3     1  UNL1        0.0914
      9 C         139.9864  143.8106  165.1911 C.2     1  UNL1        0.2458
     10 O         138.8527  144.7818  165.3372 O.2     1  UNL1       -0.2701
     11 N         141.0590  144.0576  164.1721 N.am    1  UNL1       -0.3008
     12 H         141.8031  143.4201  164.0763 H       1  UNL1        0.1497
     13 C         139.6466  140.0484  166.4080 C.ar    1  UNL1       -0.0230
     14 C         139.5856  141.2667  165.5352 C.ar    1  UNL1        0.0002
     15 C         140.0474  142.5922  166.0641 C.ar    1  UNL1        0.0527
     16 C         140.5702  142.6994  167.4659 C.ar    1  UNL1        0.0002
     17 C         140.6313  141.4811  168.3388 C.ar    1  UNL1       -0.0230
     18 C         140.1694  140.1556  167.8098 C.ar    1  UNL1       -0.0086
     19 C         140.4982  138.5455  165.1767 C.3     1  UNL1        0.0044
     20 C         139.1847  138.7229  165.8791 C.3     1  UNL1        0.0189
     21 C         137.8713  138.9003  166.5815 C.3     1  UNL1        0.0044
     22 C         138.7229  137.3974  165.3502 C.3     1  UNL1        0.0044
     23 C         141.1541  141.5883  169.7407 C.3     1  UNL1        0.0189
     24 C         139.8562  142.1997  170.1781 C.3     1  UNL1        0.0044
     25 C         142.4521  140.9768  169.3032 C.3     1  UNL1        0.0044
     26 C         141.6770  141.6954  171.1424 C.3     1  UNL1        0.0044
     27 C         143.0799  142.6013  158.6156 C.3     1  UNL1        0.0853
     28 C         142.6969  141.2077  159.0173 C.3     1  UNL1        0.0096
     29 C         143.7597  140.2112  159.3743 C.3     1  UNL1        0.0012
     30 C         143.9039  139.7442  160.7925 C.3     1  UNL1        0.0087
     31 C         142.9623  140.2461  161.8468 C.3     1  UNL1        0.0446
     32 C         141.5281  139.8071  161.8419 C.ar    1  UNL1       -0.0183
     33 C         140.4342  140.8162  162.0295 C.ar    1  UNL1       -0.0017
     34 C         138.9999  140.3772  162.0246 C.ar    1  UNL1        0.0293
     35 C         138.6595  138.9291  161.8321 C.ar    1  UNL1        0.1401
     36 F         137.2251  138.4901  161.8273 F       1  UNL1       -0.2042
     37 C         139.7533  137.9200  161.6445 C.ar    1  UNL1        0.0293
     38 C         141.1876  138.3590  161.6494 C.ar    1  UNL1       -0.0017
     39 C         143.4551  141.1871  162.9060 C.ar    1  UNL1       -0.0183
     40 C         144.2397  142.4060  162.5203 C.ar    1  UNL1       -0.0017
     41 C         144.7325  143.3469  163.5794 C.ar    1  UNL1        0.0293
     42 C         144.4407  143.0689  165.0243 C.ar    1  UNL1        0.1401
     43 F         144.9334  144.0099  166.0834 F       1  UNL1       -0.2042
     44 C         143.6561  141.8501  165.4100 C.ar    1  UNL1        0.0293
     45 C         143.1633  140.9091  164.3508 C.ar    1  UNL1       -0.0017
@<TRIPOS>BOND
     1    19    20    1
     2    20    21    1
     3    20    22    1
     4    20    13    1
     5    13    14   ar
     6    14    15   ar
     7    15     9    1
     8     9    10    2
     9     9    11   am
    10    11     8    1
    11     1     8    1
    12     1     2    1
    13     2     3    1
    14     3     4    1
    15     4     5   am
    16     5     6    2
    17     5    27    1
    18    27    28    1
    19    28    29    1
    20    29    30    1
    21    30    31    1
    22    31    32    1
    23    32    33   ar
    24    33    34   ar
    25    34    35   ar
    26    35    36    1
    27    35    37   ar
    28    37    38   ar
    29    31    39    1
    30    39    40   ar
    31    40    41   ar
    32    41    42   ar
    33    42    43    1
    34    42    44   ar
    35    44    45   ar
    36     4     7    1
    37    15    16   ar
    38    16    17   ar
    39    17    23    1
    40    23    24    1
    41    23    25    1
    42    23    26    1
    43    17    18   ar
    44    18    13   ar
    45     7     1    1
    46    38    32   ar
    47    45    39   ar
    48    11    12    1
@<TRIPOS>MOLECULE
*****
 45 48 0 0 0
SMALL
GASTEIGER

@<TRIPOS>ATOM
      1 C         140.9843  138.9067  157.9603 C.3     1  UNL1        0.0412
      2 C         141.7073  137.7304  157.3743 C.3     1  UNL1        0.0249
      3 C         143.0321  138.2099  156.8595 C.3     1  UNL1        0.0935
      4 N         143.1278  139.6827  157.1273 N.am    1  UNL1       -0.2795
      5 C         144.2858  140.5693  156.7764 C.2     1  UNL1        0.2256
      6 O         145.4909  139.9937  156.0935 O.2     1  UNL1       -0.2749
      7 C         141.8622  140.1133  157.8076 C.3     1  UNL1        0.0951
      8 C         139.6224  138.8810  158.5886 C.3     1  UNL1        0.0914
      9 C         139.0315  140.3887  160.6202 C.2     1  UNL1        0.2458
     10 O         138.7330  141.5263  159.6892 O.2     1  UNL1       -0.2701
     11 N         139.4763  139.0661  160.0699 N.am    1  UNL1       -0.3008
     12 H         139.6722  138.3194  160.6809 H       1  UNL1        0.1497
     13 C         138.7453  142.1389  164.1705 C.ar    1  UNL1       -0.0230
     14 C         138.8914  141.9538  162.6892 C.ar    1  UNL1        0.0002
     15 C         138.8854  140.5737  162.1016 C.ar    1  UNL1        0.0527
     16 C         138.7331  139.3787  162.9953 C.ar    1  UNL1        0.0002
     17 C         138.5870  139.5638  164.4766 C.ar    1  UNL1       -0.0230
     18 C         138.5931  140.9439  165.0642 C.ar    1  UNL1       -0.0086
     19 C         139.7648  143.0820  165.7740 C.3     1  UNL1        0.0044
     20 C         138.7514  143.5190  164.7582 C.3     1  UNL1        0.0189
     21 C         137.7379  143.9560  163.7423 C.3     1  UNL1        0.0044
     22 C         138.7574  144.8991  165.3458 C.3     1  UNL1        0.0044
     23 C         138.4347  138.3688  165.3704 C.3     1  UNL1        0.0189
     24 C         138.1350  139.2733  166.5288 C.3     1  UNL1        0.0044
     25 C         138.7345  137.4643  164.2119 C.3     1  UNL1        0.0044
     26 C         138.2825  137.1737  166.2640 C.3     1  UNL1        0.0044
     27 C         144.2386  142.0312  157.1084 C.3     1  UNL1        0.0853
     28 C         144.7125  142.5118  158.4480 C.3     1  UNL1        0.0096
     29 C         144.4617  141.6840  159.6736 C.3     1  UNL1        0.0012
     30 C         144.3686  142.3433  161.0178 C.3     1  UNL1        0.0087
     31 C         143.0831  142.2954  161.7892 C.3     1  UNL1        0.0446
     32 C         142.1153  143.4382  161.7056 C.ar    1  UNL1       -0.0183
     33 C         142.0015  144.4094  162.8431 C.ar    1  UNL1       -0.0017
     34 C         141.0337  145.5524  162.7596 C.ar    1  UNL1        0.0293
     35 C         140.1796  145.7241  161.5385 C.ar    1  UNL1        0.1401
     36 F         139.2117  146.8671  161.4549 F       1  UNL1       -0.2042
     37 C         140.2934  144.7529  160.4010 C.ar    1  UNL1        0.0293
     38 C         141.2612  143.6100  160.4845 C.ar    1  UNL1       -0.0017
     39 C         142.7654  141.1045  162.6442 C.ar    1  UNL1       -0.0183
     40 C         142.6042  139.7518  162.0162 C.ar    1  UNL1       -0.0017
     41 C         142.2866  138.5610  162.8712 C.ar    1  UNL1        0.0293
     42 C         142.1302  138.7229  164.3543 C.ar    1  UNL1        0.1401
     43 F         141.8125  137.5321  165.2093 F       1  UNL1       -0.2042
     44 C         142.2914  140.0755  164.9823 C.ar    1  UNL1        0.0293
     45 C         142.6090  141.2664  164.1273 C.ar    1  UNL1       -0.0017
@<TRIPOS>BOND
     1    19    20    1
     2    20    21    1
     3    20    22    1
     4    20    13    1
     5    13    14   ar
     6    14    15   ar
     7    15     9    1
     8     9    10    2
     9     9    11   am
    10    11     8    1
    11     1     8    1
    12     1     2    1
    13     2     3    1
    14     3     4    1
    15     4     5   am
    16     5     6    2
    17     5    27    1
    18    27    28    1
    19    28    29    1
    20    29    30    1
    21    30    31    1
    22    31    32    1
    23    32    33   ar
    24    33    34   ar
    25    34    35   ar
    26    35    36    1
    27    35    37   ar
    28    37    38   ar
    29    31    39    1
    30    39    40   ar
    31    40    41   ar
    32    41    42   ar
    33    42    43    1
    34    42    44   ar
    35    44    45   ar
    36     4     7    1
    37    15    16   ar
    38    16    17   ar
    39    17    23    1
    40    23    24    1
    41    23    25    1
    42    23    26    1
    43    17    18   ar
    44    18    13   ar
    45     7     1    1
    46    38    32   ar
    47    45    39   ar
    48    11    12    1
@<TRIPOS>MOLECULE
*****
 45 48 0 0 0
SMALL
GASTEIGER

@<TRIPOS>ATOM
      1 C         143.5510  138.6948  161.3544 C.3     1  UNL1        0.0412
      2 C         143.0347  137.5810  160.4925 C.3     1  UNL1        0.0249
      3 C         143.0641  138.0462  159.0668 C.3     1  UNL1        0.0935
      4 N         143.5985  139.4476  159.0475 N.am    1  UNL1       -0.2795
      5 C         143.7972  140.2988  157.8284 C.2     1  UNL1        0.2256
      6 O         143.4494  139.7597  156.4725 O.2     1  UNL1       -0.2749
      7 C         143.8995  139.8485  160.4612 C.3     1  UNL1        0.0951
      8 C         143.6938  138.6610  162.8472 C.3     1  UNL1        0.0914
      9 C         143.2402  140.6378  164.4708 C.2     1  UNL1        0.2458
     10 O         144.6789  141.0502  164.3707 O.2     1  UNL1       -0.2701
     11 N         142.7476  139.4432  163.7090 N.am    1  UNL1       -0.3008
     12 H         141.8033  139.1726  163.7747 H       1  UNL1        0.1497
     13 C         141.6786  142.4524  167.6360 C.ar    1  UNL1       -0.0230
     14 C         142.6248  141.6702  166.7742 C.ar    1  UNL1        0.0002
     15 C         142.2939  141.4201  165.3327 C.ar    1  UNL1        0.0527
     16 C         141.0169  141.9522  164.7530 C.ar    1  UNL1        0.0002
     17 C         140.0707  142.7344  165.6149 C.ar    1  UNL1       -0.0230
     18 C         140.4016  142.9845  167.0564 C.ar    1  UNL1       -0.0086
     19 C         140.6160  143.2069  169.3099 C.3     1  UNL1        0.0044
     20 C         142.0094  142.7026  169.0776 C.3     1  UNL1        0.0189
     21 C         143.4029  142.1982  168.8453 C.3     1  UNL1        0.0044
     22 C         142.3403  142.9527  170.5191 C.3     1  UNL1        0.0044
     23 C         138.7936  143.2666  165.0352 C.3     1  UNL1        0.0189
     24 C         138.5205  141.9306  164.4104 C.3     1  UNL1        0.0044
     25 C         139.0668  144.6026  165.6601 C.3     1  UNL1        0.0044
     26 C         137.5166  143.7988  164.4556 C.3     1  UNL1        0.0044
     27 C         144.3436  141.6889  157.9652 C.3     1  UNL1        0.0853
     28 C         143.4211  142.8688  157.8829 C.3     1  UNL1        0.0096
     29 C         141.9468  142.6841  158.0890 C.3     1  UNL1        0.0012
     30 C         141.2153  143.5389  159.0812 C.3     1  UNL1        0.0087
     31 C         141.0612  143.0765  160.4998 C.3     1  UNL1        0.0446
     32 C         141.8497  143.7345  161.5930 C.ar    1  UNL1       -0.0183
     33 C         141.1791  144.7001  162.5245 C.ar    1  UNL1       -0.0017
     34 C         141.9676  145.3582  163.6177 C.ar    1  UNL1        0.0293
     35 C         143.4268  145.0507  163.7794 C.ar    1  UNL1        0.1401
     36 F         144.2154  145.7088  164.8726 F       1  UNL1       -0.2042
     37 C         144.0974  144.0851  162.8478 C.ar    1  UNL1        0.0293
     38 C         143.3089  143.4270  161.7546 C.ar    1  UNL1       -0.0017
     39 C         140.1184  141.9559  160.8252 C.ar    1  UNL1       -0.0183
     40 C         140.6541  140.6435  161.3154 C.ar    1  UNL1       -0.0017
     41 C         139.7114  139.5230  161.6407 C.ar    1  UNL1        0.0293
     42 C         138.2329  139.7151  161.4758 C.ar    1  UNL1        0.1401
     43 F         137.2901  138.5947  161.8011 F       1  UNL1       -0.2042
     44 C         137.6971  141.0276  160.9856 C.ar    1  UNL1        0.0293
     45 C         138.6399  142.1481  160.6602 C.ar    1  UNL1       -0.0017
@<TRIPOS>BOND
     1    19    20    1
     2    20    21    1
     3    20    22    1
     4    20    13    1
     5    13    14   ar
     6    14    15   ar
     7    15     9    1
     8     9    10    2
     9     9    11   am
    10    11     8    1
    11     1     8    1
    12     1     2    1
    13     2     3    1
    14     3     4    1
    15     4     5   am
    16     5     6    2
    17     5    27    1
    18    27    28    1
    19    28    29    1
    20    29    30    1
    21    30    31    1
    22    31    32    1
    23    32    33   ar
    24    33    34   ar
    25    34    35   ar
    26    35    36    1
    27    35    37   ar
    28    37    38   ar
    29    31    39    1
    30    39    40   ar
    31    40    41   ar
    32    41    42   ar
    33    42    43    1
    34    42    44   ar
    35    44    45   ar
    36     4     7    1
    37    15    16   ar
    38    16    17   ar
    39    17    23    1
    40    23    24    1
    41    23    25    1
    42    23    26    1
    43    17    18   ar
    44    18    13   ar
    45     7     1    1
    46    38    32   ar
    47    45    39   ar
    48    11    12    1
