@<TRIPOS>MOLECULE
*****
 25 28 0 0 0
SMALL
GASTEIGER

@<TRIPOS>ATOM
      1 N         137.3299  144.7702  162.7447 N.pl3   1  UNL1       -0.3128
      2 C         137.7265  143.3784  163.1390 C.ar    1  UNL1        0.2859
      3 N         138.4441  142.9892  164.3974 N.ar    1  UNL1       -0.1948
      4 C         138.6361  141.5016  164.3804 C.ar    1  UNL1        0.1245
      5 C         139.2790  140.5614  165.3564 C.ar    1  UNL1        0.0749
      6 C         139.3229  139.0908  165.0634 C.ar    1  UNL1        0.0176
      7 C         138.7240  138.5607  163.7945 C.ar    1  UNL1        0.0610
      8 CL        138.7680  137.0902  163.5015 Cl      1  UNL1       -0.0821
      9 C         138.0811  139.5010  162.8185 C.ar    1  UNL1        0.0505
     10 C         138.0372  140.9714  163.1114 C.ar    1  UNL1        0.1670
     11 O         137.4750  142.1314  162.3443 O.2     1  UNL1       -0.4240
     12 H         137.5402  145.5284  163.3365 H       1  UNL1        0.1466
     13 H         136.8594  144.9257  161.8940 H       1  UNL1        0.1466
     14 C         139.8779  141.0915  166.6253 C.2     1  UNL1        0.2474
     15 O         139.9222  140.2287  167.8514 O.2     1  UNL1       -0.2701
     16 N         140.4325  142.4846  166.6681 N.am    1  UNL1       -0.3011
     17 H         140.4497  143.1247  165.9203 H       1  UNL1        0.1497
     18 C         141.3671  142.9216  169.1382 C.3     1  UNL1        0.0878
     19 C         142.6850  142.6013  169.1474 C.3     1  UNL1        0.0919
     20 N         143.4863  142.4198  169.2018 N.3     1  UNL1       -0.2713
     21 C         142.8269  142.9186  170.4533 C.3     1  UNL1        0.0722
     22 C         141.3693  143.2728  170.4432 C.3     1  UNL1        0.0191
     23 C         140.5712  143.1281  169.1814 C.3     1  UNL1        0.0221
     24 C         141.2306  142.6293  167.9298 C.3     1  UNL1        0.0191
     25 C         142.6882  142.2751  167.9401 C.3     1  UNL1        0.0722
@<TRIPOS>BOND
     1     1     2    1
     2     2     3   ar
     3     3     4   ar
     4     4     5   ar
     5     5    14    1
     6    14    15    2
     7    14    16   am
     8    18    16    1
     9    18    19    1
    10    19    20    1
    11    20    21    1
    12    21    22    1
    13    22    23    1
    14    23    24    1
    15    24    25    1
    16     5     6   ar
    17     6     7   ar
    18     7     8    1
    19     7     9   ar
    20     9    10   ar
    21    10    11   ar
    22    11     2   ar
    23    10     4   ar
    24    23    18    1
    25    25    20    1
    26     1    12    1
    27     1    13    1
    28    16    17    1
@<TRIPOS>MOLECULE
*****
 25 28 0 0 0
SMALL
GASTEIGER

@<TRIPOS>ATOM
      1 N         143.5880  144.0391  171.3160 N.pl3   1  UNL1       -0.3128
      2 C         142.6917  143.1456  170.5108 C.ar    1  UNL1        0.2859
      3 N         142.8643  142.7981  169.0619 N.ar    1  UNL1       -0.1948
      4 C         141.7448  141.8804  168.6687 C.ar    1  UNL1        0.1245
      5 C         141.4009  141.2164  167.3684 C.ar    1  UNL1        0.0749
      6 C         140.1924  140.3327  167.2741 C.ar    1  UNL1        0.0176
      7 C         139.3279  140.1131  168.4801 C.ar    1  UNL1        0.0610
      8 CL        138.1195  139.2295  168.3858 Cl      1  UNL1       -0.0821
      9 C         139.6719  140.7771  169.7804 C.ar    1  UNL1        0.0505
     10 C         140.8803  141.6608  169.8747 C.ar    1  UNL1        0.1670
     11 O         141.4655  142.4427  171.0132 O.2     1  UNL1       -0.4240
     12 H         144.3735  144.4572  170.8947 H       1  UNL1        0.1466
     13 H         143.3907  144.2075  172.2657 H       1  UNL1        0.1466
     14 C         142.2653  141.4360  166.1625 C.2     1  UNL1        0.2474
     15 O         141.9002  140.8029  164.8526 O.2     1  UNL1       -0.2701
     16 N         143.4950  142.2888  166.2664 N.am    1  UNL1       -0.3011
     17 H         143.8171  142.7449  167.0772 H       1  UNL1        0.1497
     18 C         144.6583  142.3506  163.8563 C.3     1  UNL1        0.0878
     19 C         144.1392  143.3989  163.1700 C.3     1  UNL1        0.0919
     20 N         143.8538  144.0228  162.7147 N.3     1  UNL1       -0.2713
     21 C         144.8945  143.1507  162.0773 C.3     1  UNL1        0.0722
     22 C         145.4687  141.9912  162.8362 C.3     1  UNL1        0.0191
     23 C         145.0022  141.7039  164.2326 C.3     1  UNL1        0.0221
     24 C         143.9615  142.5761  164.8700 C.3     1  UNL1        0.0191
     25 C         143.3874  143.7355  164.1111 C.3     1  UNL1        0.0722
@<TRIPOS>BOND
     1     1     2    1
     2     2     3   ar
     3     3     4   ar
     4     4     5   ar
     5     5    14    1
     6    14    15    2
     7    14    16   am
     8    18    16    1
     9    18    19    1
    10    19    20    1
    11    20    21    1
    12    21    22    1
    13    22    23    1
    14    23    24    1
    15    24    25    1
    16     5     6   ar
    17     6     7   ar
    18     7     8    1
    19     7     9   ar
    20     9    10   ar
    21    10    11   ar
    22    11     2   ar
    23    10     4   ar
    24    23    18    1
    25    25    20    1
    26     1    12    1
    27     1    13    1
    28    16    17    1
@<TRIPOS>MOLECULE
*****
 25 28 0 0 0
SMALL
GASTEIGER

@<TRIPOS>ATOM
      1 N         137.0039  139.1551  170.9137 N.pl3   1  UNL1       -0.3128
      2 C         138.2427  139.7054  170.2714 C.ar    1  UNL1        0.2859
      3 N         138.5883  139.6292  168.8137 N.ar    1  UNL1       -0.1948
      4 C         139.9126  140.3052  168.6154 C.ar    1  UNL1        0.1245
      5 C         140.7490  140.5348  167.3916 C.ar    1  UNL1        0.0749
      6 C         142.0583  141.2584  167.5029 C.ar    1  UNL1        0.0176
      7 C         142.5311  141.7523  168.8379 C.ar    1  UNL1        0.0610
      8 CL        143.8403  142.4759  168.9492 Cl      1  UNL1       -0.0821
      9 C         141.6946  141.5228  170.0618 C.ar    1  UNL1        0.0505
     10 C         140.3854  140.7992  169.9505 C.ar    1  UNL1        0.1670
     11 O         139.3533  140.4285  170.9739 O.2     1  UNL1       -0.4240
     12 H         136.3286  138.6938  170.3656 H       1  UNL1        0.1466
     13 H         136.8661  139.2553  171.8833 H       1  UNL1        0.1466
     14 C         140.2762  140.0408  166.0565 C.2     1  UNL1        0.2474
     15 O         141.1140  140.2677  164.8332 O.2     1  UNL1       -0.2701
     16 N         138.9655  139.3199  165.9448 N.am    1  UNL1       -0.3011
     17 H         138.3473  139.1232  166.6853 H       1  UNL1        0.1497
     18 C         138.6054  138.6631  163.3748 C.3     1  UNL1        0.0878
     19 C         138.0195  139.7170  162.7538 C.3     1  UNL1        0.0919
     20 N         137.6644  140.3299  162.3341 N.3     1  UNL1       -0.2713
     21 C         137.9858  139.0867  161.5589 C.3     1  UNL1        0.0722
     22 C         138.6337  137.9210  162.2457 C.3     1  UNL1        0.0191
     23 C         138.9603  137.9988  163.7077 C.3     1  UNL1        0.0221
     24 C         138.6389  139.2422  164.4828 C.3     1  UNL1        0.0191
     25 C         137.9910  140.4077  163.7960 C.3     1  UNL1        0.0722
@<TRIPOS>BOND
     1     1     2    1
     2     2     3   ar
     3     3     4   ar
     4     4     5   ar
     5     5    14    1
     6    14    15    2
     7    14    16   am
     8    18    16    1
     9    18    19    1
    10    19    20    1
    11    20    21    1
    12    21    22    1
    13    22    23    1
    14    23    24    1
    15    24    25    1
    16     5     6   ar
    17     6     7   ar
    18     7     8    1
    19     7     9   ar
    20     9    10   ar
    21    10    11   ar
    22    11     2   ar
    23    10     4   ar
    24    23    18    1
    25    25    20    1
    26     1    12    1
    27     1    13    1
    28    16    17    1
@<TRIPOS>MOLECULE
*****
 25 28 0 0 0
SMALL
GASTEIGER

@<TRIPOS>ATOM
      1 N         139.6231  142.8585  171.3191 N.pl3   1  UNL1       -0.3128
      2 C         140.3206  142.0812  170.2424 C.ar    1  UNL1        0.2859
      3 N         140.2389  142.3479  168.7685 N.ar    1  UNL1       -0.1948
      4 C         141.0901  141.3322  168.0658 C.ar    1  UNL1        0.1245
      5 C         141.3903  141.1063  166.6136 C.ar    1  UNL1        0.0749
      6 C         142.2983  139.9859  166.2009 C.ar    1  UNL1        0.0176
      7 C         142.9061  139.0914  167.2404 C.ar    1  UNL1        0.0610
      8 CL        143.8141  137.9711  166.8277 Cl      1  UNL1       -0.0821
      9 C         142.6059  139.3174  168.6926 C.ar    1  UNL1        0.0505
     10 C         141.6979  140.4378  169.1053 C.ar    1  UNL1        0.1670
     11 O         141.2223  140.9007  170.4505 O.2     1  UNL1       -0.4240
     12 H         139.0487  143.6220  171.0815 H       1  UNL1        0.1466
     13 H         139.7397  142.6052  172.2632 H       1  UNL1        0.1466
     14 C         140.7825  142.0007  165.5741 C.2     1  UNL1        0.2474
     15 O         140.6767  141.5343  164.1524 O.2     1  UNL1       -0.2701
     16 N         140.2805  143.3616  165.9563 N.am    1  UNL1       -0.3011
     17 H         140.3052  143.7563  166.8580 H       1  UNL1        0.1497
     18 C         139.3058  144.5269  163.7523 C.3     1  UNL1        0.0878
     19 C         140.3340  145.1428  163.1174 C.3     1  UNL1        0.0919
     20 N         140.9254  145.5317  162.6968 N.3     1  UNL1       -0.2713
     21 C         139.5421  145.5950  162.1201 C.3     1  UNL1        0.0722
     22 C         138.4049  144.9139  162.8222 C.3     1  UNL1        0.0191
     23 C         138.6510  144.1694  164.1010 C.3     1  UNL1        0.0221
     24 C         140.0344  144.1061  164.6776 C.3     1  UNL1        0.0191
     25 C         141.1715  144.7872  163.9755 C.3     1  UNL1        0.0722
@<TRIPOS>BOND
     1     1     2    1
     2     2     3   ar
     3     3     4   ar
     4     4     5   ar
     5     5    14    1
     6    14    15    2
     7    14    16   am
     8    18    16    1
     9    18    19    1
    10    19    20    1
    11    20    21    1
    12    21    22    1
    13    22    23    1
    14    23    24    1
    15    24    25    1
    16     5     6   ar
    17     6     7   ar
    18     7     8    1
    19     7     9   ar
    20     9    10   ar
    21    10    11   ar
    22    11     2   ar
    23    10     4   ar
    24    23    18    1
    25    25    20    1
    26     1    12    1
    27     1    13    1
    28    16    17    1
@<TRIPOS>MOLECULE
*****
 25 28 0 0 0
SMALL
GASTEIGER

@<TRIPOS>ATOM
      1 N         139.7176  146.0375  162.6253 N.pl3   1  UNL1       -0.3128
      2 C         140.8522  145.1264  162.9891 C.ar    1  UNL1        0.2859
      3 N         140.9612  144.3116  164.2438 N.ar    1  UNL1       -0.1948
      4 C         142.2535  143.5517  164.1923 C.ar    1  UNL1        0.1245
      5 C         142.8913  142.5901  165.1506 C.ar    1  UNL1        0.0749
      6 C         144.2188  141.9735  164.8224 C.ar    1  UNL1        0.0176
      7 C         144.9084  142.3186  163.5358 C.ar    1  UNL1        0.0610
      8 CL        146.2358  141.7021  163.2076 Cl      1  UNL1       -0.0821
      9 C         144.2705  143.2803  162.5774 C.ar    1  UNL1        0.0505
     10 C         142.9431  143.8968  162.9057 C.ar    1  UNL1        0.1670
     11 O         142.0771  144.8700  162.1621 O.2     1  UNL1       -0.4240
     12 H         138.9532  146.1404  163.2372 H       1  UNL1        0.1466
     13 H         139.7372  146.5327  161.7746 H       1  UNL1        0.1466
     14 C         142.2016  142.2450  166.4372 C.2     1  UNL1        0.2474
     15 O         142.9353  141.4824  167.5003 O.2     1  UNL1       -0.2701
     16 N         140.7783  142.6626  166.6607 N.am    1  UNL1       -0.3011
     17 H         140.2150  143.1632  166.0272 H       1  UNL1        0.1497
     18 C         140.0417  141.8052  169.0872 C.3     1  UNL1        0.0878
     19 C         139.5618  140.5434  168.9551 C.3     1  UNL1        0.0919
     20 N         139.2622  139.7771  168.9246 N.3     1  UNL1       -0.2713
     21 C         139.3002  140.4274  170.2758 C.3     1  UNL1        0.0722
     22 C         139.8309  141.8228  170.4220 C.3     1  UNL1        0.0191
     23 C         140.3236  142.5678  169.2169 C.3     1  UNL1        0.0221
     24 C         140.2856  141.9175  167.8657 C.3     1  UNL1        0.0191
     25 C         139.7549  140.5222  167.7196 C.3     1  UNL1        0.0722
@<TRIPOS>BOND
     1     1     2    1
     2     2     3   ar
     3     3     4   ar
     4     4     5   ar
     5     5    14    1
     6    14    15    2
     7    14    16   am
     8    18    16    1
     9    18    19    1
    10    19    20    1
    11    20    21    1
    12    21    22    1
    13    22    23    1
    14    23    24    1
    15    24    25    1
    16     5     6   ar
    17     6     7   ar
    18     7     8    1
    19     7     9   ar
    20     9    10   ar
    21    10    11   ar
    22    11     2   ar
    23    10     4   ar
    24    23    18    1
    25    25    20    1
    26     1    12    1
    27     1    13    1
    28    16    17    1
@<TRIPOS>MOLECULE
*****
 25 28 0 0 0
SMALL
GASTEIGER

@<TRIPOS>ATOM
      1 N         143.6788  137.4399  170.6838 N.pl3   1  UNL1       -0.3128
      2 C         142.9458  138.6896  170.2950 C.ar    1  UNL1        0.2859
      3 N         142.1650  138.8967  169.0312 N.ar    1  UNL1       -0.1948
      4 C         141.6016  140.2867  169.0569 C.ar    1  UNL1        0.1245
      5 C         140.7505  141.0429  168.0803 C.ar    1  UNL1        0.0749
      6 C         140.3321  142.4512  168.3834 C.ar    1  UNL1        0.0176
      7 C         140.7649  143.1031  169.6632 C.ar    1  UNL1        0.0610
      8 CL        140.3465  144.5113  169.9664 Cl      1  UNL1       -0.0821
      9 C         141.6160  142.3468  170.6398 C.ar    1  UNL1        0.0505
     10 C         142.0343  140.9386  170.3366 C.ar    1  UNL1        0.1670
     11 O         142.8651  139.9516  171.1018 O.2     1  UNL1       -0.4240
     12 H         143.6733  136.6593  170.0840 H       1  UNL1        0.1466
     13 H         144.1653  137.4004  171.5388 H       1  UNL1        0.1466
     14 C         140.3178  140.3910  166.8006 C.2     1  UNL1        0.2474
     15 O         141.1874  140.4808  165.5817 O.2     1  UNL1       -0.2701
     16 N         139.0154  139.6492  166.7397 N.am    1  UNL1       -0.3011
     17 H         138.3785  139.5348  167.4817 H       1  UNL1        0.1497
     18 C         138.7303  138.6916  164.2563 C.3     1  UNL1        0.0878
     19 C         138.2027  139.6770  163.4881 C.3     1  UNL1        0.0919
     20 N         137.8837  140.2433  162.9826 N.3     1  UNL1       -0.2713
     21 C         138.1931  138.9057  162.3784 C.3     1  UNL1        0.0722
     22 C         138.7766  137.8159  163.2280 C.3     1  UNL1        0.0191
     23 C         139.0507  138.0637  164.6818 C.3     1  UNL1        0.0221
     24 C         138.7413  139.4014  165.2860 C.3     1  UNL1        0.0191
     25 C         138.1578  140.4912  164.4364 C.3     1  UNL1        0.0722
@<TRIPOS>BOND
     1     1     2    1
     2     2     3   ar
     3     3     4   ar
     4     4     5   ar
     5     5    14    1
     6    14    15    2
     7    14    16   am
     8    18    16    1
     9    18    19    1
    10    19    20    1
    11    20    21    1
    12    21    22    1
    13    22    23    1
    14    23    24    1
    15    24    25    1
    16     5     6   ar
    17     6     7   ar
    18     7     8    1
    19     7     9   ar
    20     9    10   ar
    21    10    11   ar
    22    11     2   ar
    23    10     4   ar
    24    23    18    1
    25    25    20    1
    26     1    12    1
    27     1    13    1
    28    16    17    1
@<TRIPOS>MOLECULE
*****
 25 28 0 0 0
SMALL
GASTEIGER

@<TRIPOS>ATOM
      1 N         137.8913  137.6271  162.0687 N.pl3   1  UNL1       -0.3128
      2 C         138.1513  139.0572  162.4391 C.ar    1  UNL1        0.2859
      3 N         138.7391  139.5403  163.7318 N.ar    1  UNL1       -0.1948
      4 C         138.8203  141.0370  163.6735 C.ar    1  UNL1        0.1245
      5 C         139.3144  142.0545  164.6586 C.ar    1  UNL1        0.0749
      6 C         139.2708  143.5140  164.3150 C.ar    1  UNL1        0.0176
      7 C         138.7331  143.9559  162.9862 C.ar    1  UNL1        0.0610
      8 CL        138.6895  145.4153  162.6426 Cl      1  UNL1       -0.0821
      9 C         138.2391  142.9383  162.0011 C.ar    1  UNL1        0.0505
     10 C         138.2827  141.4789  162.3447 C.ar    1  UNL1        0.1670
     11 O         137.8692  140.2553  161.5818 O.2     1  UNL1       -0.4240
     12 H         138.1115  136.9066  162.7025 H       1  UNL1        0.1466
     13 H         137.5003  137.4090  161.1919 H       1  UNL1        0.1466
     14 C         139.8520  141.6126  165.9874 C.2     1  UNL1        0.2474
     15 O         140.5953  142.5835  166.8562 O.2     1  UNL1       -0.2701
     16 N         139.6463  140.1997  166.4474 N.am    1  UNL1       -0.3011
     17 H         139.1744  139.4918  165.9519 H       1  UNL1        0.1497
     18 C         140.7897  139.9444  168.8543 C.3     1  UNL1        0.0878
     19 C         142.0979  139.6410  168.6638 C.3     1  UNL1        0.0919
     20 N         142.8975  139.4558  168.5983 N.3     1  UNL1       -0.2713
     21 C         142.3530  139.5871  169.9898 C.3     1  UNL1        0.0722
     22 C         140.9062  139.9226  170.2005 C.3     1  UNL1        0.0191
     23 C         140.0040  140.1268  169.0197 C.3     1  UNL1        0.0221
     24 C         140.5485  139.9955  167.6282 C.3     1  UNL1        0.0191
     25 C         141.9953  139.6600  167.4175 C.3     1  UNL1        0.0722
@<TRIPOS>BOND
     1     1     2    1
     2     2     3   ar
     3     3     4   ar
     4     4     5   ar
     5     5    14    1
     6    14    15    2
     7    14    16   am
     8    18    16    1
     9    18    19    1
    10    19    20    1
    11    20    21    1
    12    21    22    1
    13    22    23    1
    14    23    24    1
    15    24    25    1
    16     5     6   ar
    17     6     7   ar
    18     7     8    1
    19     7     9   ar
    20     9    10   ar
    21    10    11   ar
    22    11     2   ar
    23    10     4   ar
    24    23    18    1
    25    25    20    1
    26     1    12    1
    27     1    13    1
    28    16    17    1
@<TRIPOS>MOLECULE
*****
 25 28 0 0 0
SMALL
GASTEIGER

@<TRIPOS>ATOM
      1 N         137.4034  139.4752  170.6276 N.pl3   1  UNL1       -0.3128
      2 C         138.7435  140.0075  170.2142 C.ar    1  UNL1        0.2859
      3 N         139.3359  139.9319  168.8382 N.ar    1  UNL1       -0.1948
      4 C         140.6850  140.5865  168.8778 C.ar    1  UNL1        0.1245
      5 C         141.7248  140.8074  167.8195 C.ar    1  UNL1        0.0749
      6 C         143.0060  141.5085  168.1617 C.ar    1  UNL1        0.0176
      7 C         143.2473  141.9886  169.5621 C.ar    1  UNL1        0.0610
      8 CL        144.5285  142.6897  169.9043 Cl      1  UNL1       -0.0821
      9 C         142.2074  141.7677  170.6204 C.ar    1  UNL1        0.0505
     10 C         140.9263  141.0667  170.2782 C.ar    1  UNL1        0.1670
     11 O         139.7264  140.7088  171.1041 O.2     1  UNL1       -0.4240
     12 H         136.8265  139.0276  169.9672 H       1  UNL1        0.1466
     13 H         137.1008  139.5734  171.5593 H       1  UNL1        0.1466
     14 C         141.4834  140.3273  166.4191 C.2     1  UNL1        0.2474
     15 O         142.5648  140.4512  165.3870 O.2     1  UNL1       -0.2701
     16 N         140.1607  139.7233  166.0508 N.am    1  UNL1       -0.3011
     17 H         139.3924  139.5991  166.6537 H       1  UNL1        0.1497
     18 C         140.2597  139.0430  163.4637 C.3     1  UNL1        0.0878
     19 C         140.7105  137.7662  163.3858 C.3     1  UNL1        0.0919
     20 N         140.9802  136.9943  163.2883 N.3     1  UNL1       -0.2713
     21 C         140.6422  137.7480  162.0363 C.3     1  UNL1        0.0722
     22 C         140.1437  139.1602  162.1223 C.3     1  UNL1        0.0191
     23 C         139.9832  139.8186  163.4605 C.3     1  UNL1        0.0221
     24 C         140.3212  139.0649  164.7126 C.3     1  UNL1        0.0191
     25 C         140.8197  137.6528  164.6265 C.3     1  UNL1        0.0722
@<TRIPOS>BOND
     1     1     2    1
     2     2     3   ar
     3     3     4   ar
     4     4     5   ar
     5     5    14    1
     6    14    15    2
     7    14    16   am
     8    18    16    1
     9    18    19    1
    10    19    20    1
    11    20    21    1
    12    21    22    1
    13    22    23    1
    14    23    24    1
    15    24    25    1
    16     5     6   ar
    17     6     7   ar
    18     7     8    1
    19     7     9   ar
    20     9    10   ar
    21    10    11   ar
    22    11     2   ar
    23    10     4   ar
    24    23    18    1
    25    25    20    1
    26     1    12    1
    27     1    13    1
    28    16    17    1
@<TRIPOS>MOLECULE
*****
 25 28 0 0 0
SMALL
GASTEIGER

@<TRIPOS>ATOM
      1 N         143.9988  145.4680  162.8376 N.pl3   1  UNL1       -0.3128
      2 C         143.8692  143.9736  162.8389 C.ar    1  UNL1        0.2859
      3 N         143.2260  143.1453  163.9114 N.ar    1  UNL1       -0.1948
      4 C         143.3194  141.7049  163.5034 C.ar    1  UNL1        0.1245
      5 C         142.8567  140.4417  164.1669 C.ar    1  UNL1        0.0749
      6 C         143.0950  139.1165  163.5057 C.ar    1  UNL1        0.0176
      7 C         143.7959  139.0545  162.1810 C.ar    1  UNL1        0.0610
      8 CL        144.0342  137.7294  161.5199 Cl      1  UNL1       -0.0821
      9 C         144.2586  140.3178  161.5175 C.ar    1  UNL1        0.0505
     10 C         144.0203  141.6429  162.1787 C.ar    1  UNL1        0.1670
     11 O         144.3601  143.0450  161.7681 O.2     1  UNL1       -0.4240
     12 H         143.6429  145.9936  163.5901 H       1  UNL1        0.1466
     13 H         144.4397  145.9231  162.0842 H       1  UNL1        0.1466
     14 C         142.1557  140.5037  165.4916 C.2     1  UNL1        0.2474
     15 O         142.9065  140.1938  166.7526 O.2     1  UNL1       -0.2701
     16 N         140.7039  140.8756  165.5552 N.am    1  UNL1       -0.3011
     17 H         140.1278  141.0953  164.7877 H       1  UNL1        0.1497
     18 C         139.9574  140.8363  168.1256 C.3     1  UNL1        0.0878
     19 C         140.2780  142.0361  168.6708 C.3     1  UNL1        0.0919
     20 N         140.4536  142.7480  169.0454 N.3     1  UNL1       -0.2713
     21 C         139.7967  141.6937  169.8862 C.3     1  UNL1        0.0722
     22 C         139.4421  140.3667  169.2834 C.3     1  UNL1        0.0191
     23 C         139.7446  140.0940  167.8397 C.3     1  UNL1        0.0221
     24 C         140.4015  141.1483  166.9989 C.3     1  UNL1        0.0191
     25 C         140.7560  142.4753  167.6018 C.3     1  UNL1        0.0722
@<TRIPOS>BOND
     1     1     2    1
     2     2     3   ar
     3     3     4   ar
     4     4     5   ar
     5     5    14    1
     6    14    15    2
     7    14    16   am
     8    18    16    1
     9    18    19    1
    10    19    20    1
    11    20    21    1
    12    21    22    1
    13    22    23    1
    14    23    24    1
    15    24    25    1
    16     5     6   ar
    17     6     7   ar
    18     7     8    1
    19     7     9   ar
    20     9    10   ar
    21    10    11   ar
    22    11     2   ar
    23    10     4   ar
    24    23    18    1
    25    25    20    1
    26     1    12    1
    27     1    13    1
    28    16    17    1
