@<TRIPOS>MOLECULE
*****
 29 30 0 0 0
SMALL
GASTEIGER

@<TRIPOS>ATOM
      1 C         137.9471  142.3855  161.7339 C.3     1  UNL1        0.1020
      2 C         137.6153  141.0495  162.3299 C.3     1  UNL1        0.1697
      3 O         137.1418  139.9319  161.4486 O.3     1  UNL1       -0.3793
      4 H         137.1066  140.2381  160.5289 H       1  UNL1        0.2106
      5 C         137.7571  140.8312  163.8071 C.3     1  UNL1        0.2358
      6 O         138.3899  139.5724  164.3219 O.3     1  UNL1       -0.4721
      7 C         139.5223  139.6491  165.3026 C.ar    1  UNL1        0.1490
      8 C         139.3886  140.4886  166.5385 C.ar    1  UNL1        0.0377
      9 C         140.5209  140.5653  167.5193 C.ar    1  UNL1        0.0040
     10 C         141.7870  139.8025  167.2641 C.ar    1  UNL1        0.0123
     11 C         141.9208  138.9630  166.0282 C.ar    1  UNL1        0.0702
     12 CL        143.1869  138.2001  165.7731 Cl      1  UNL1       -0.0814
     13 C         140.7884  138.8863  165.0475 C.ar    1  UNL1        0.1128
     14 C         140.9222  138.0468  163.8116 C.1     1  UNL1        0.1043
     15 N         141.0559  137.2073  162.5758 N.1     1  UNL1       -0.1907
     16 N         137.6097  143.6433  162.4781 N.3     1  UNL1       -0.2972
     17 H         137.2264  144.2961  161.7945 H       1  UNL1        0.1233
     18 C         138.6791  144.3806  163.2285 C.3     1  UNL1        0.0461
     19 C         137.8766  144.2604  164.4901 C.3     1  UNL1        0.0161
     20 C         139.4816  144.5008  161.9670 C.3     1  UNL1        0.0161
     21 C         139.7484  145.1177  163.9790 C.3     1  UNL1        0.0408
     22 C         143.8350  143.2927  164.4462 C.ar    1  UNL1        0.1387
     23 C         143.6959  144.7093  163.9731 C.ar    1  UNL1        0.0366
     24 C         142.3337  145.3176  163.8173 C.ar    1  UNL1       -0.0011
     25 C         141.1106  144.5094  164.1347 C.ar    1  UNL1       -0.0207
     26 C         141.2497  143.0928  164.6078 C.ar    1  UNL1       -0.0011
     27 C         142.6120  142.4845  164.7636 C.ar    1  UNL1        0.0366
     28 C         145.6289  141.5696  163.6958 C.3     1  UNL1        0.2525
     29 O         145.1973  142.6843  164.6019 O.3     1  UNL1       -0.4714
@<TRIPOS>BOND
     1    28    29    1
     2    29    22    1
     3    22    23   ar
     4    23    24   ar
     5    24    25   ar
     6    25    21    1
     7    21    18    1
     8    18    19    1
     9    18    20    1
    10    18    16    1
    11    16     1    1
    12     1     2    1
    13     2     3    1
    14     2     5    1
    15     5     6    1
    16     6     7    1
    17     7     8   ar
    18     8     9   ar
    19     9    10   ar
    20    10    11   ar
    21    11    12    1
    22    11    13   ar
    23    13    14    1
    24    14    15    3
    25    25    26   ar
    26    26    27   ar
    27    27    22   ar
    28    13     7   ar
    29    16    17    1
    30     3     4    1
@<TRIPOS>MOLECULE
*****
 29 30 0 0 0
SMALL
GASTEIGER

@<TRIPOS>ATOM
      1 C         137.9695  142.3075  161.7350 C.3     1  UNL1        0.1020
      2 C         137.7029  140.9740  162.3682 C.3     1  UNL1        0.1697
      3 O         137.0348  139.8885  161.5775 O.3     1  UNL1       -0.3793
      4 H         136.8433  140.2111  160.6830 H       1  UNL1        0.2106
      5 C         138.1044  140.7261  163.7920 C.3     1  UNL1        0.2358
      6 O         138.6547  139.3900  164.1943 O.3     1  UNL1       -0.4721
      7 C         140.1329  139.2119  164.3772 C.ar    1  UNL1        0.1490
      8 C         141.0166  139.0039  163.1831 C.ar    1  UNL1        0.0377
      9 C         142.4947  138.8258  163.3660 C.ar    1  UNL1        0.0040
     10 C         143.0891  138.8557  164.7429 C.ar    1  UNL1        0.0123
     11 C         142.2053  139.0637  165.9369 C.ar    1  UNL1        0.0702
     12 CL        142.7997  139.0937  167.3138 Cl      1  UNL1       -0.0814
     13 C         140.7272  139.2418  165.7540 C.ar    1  UNL1        0.1128
     14 C         139.8435  139.4499  166.9481 C.1     1  UNL1        0.1043
     15 N         138.9597  139.6579  168.1421 N.1     1  UNL1       -0.1907
     16 N         137.6042  143.5686  162.4603 N.3     1  UNL1       -0.2972
     17 H         137.2189  144.2074  161.7647 H       1  UNL1        0.1233
     18 C         138.6532  144.3310  163.2143 C.3     1  UNL1        0.0461
     19 C         137.8496  144.1918  164.4731 C.3     1  UNL1        0.0161
     20 C         139.4568  144.4702  161.9554 C.3     1  UNL1        0.0161
     21 C         139.7022  145.0933  163.9682 C.3     1  UNL1        0.0408
     22 C         143.8258  143.3601  164.4599 C.ar    1  UNL1        0.1387
     23 C         143.6576  144.7691  163.9736 C.ar    1  UNL1        0.0366
     24 C         142.2830  145.3468  163.8097 C.ar    1  UNL1       -0.0011
     25 C         141.0768  144.5156  164.1321 C.ar    1  UNL1       -0.0207
     26 C         141.2450  143.1066  164.6184 C.ar    1  UNL1       -0.0011
     27 C         142.6196  142.5289  164.7823 C.ar    1  UNL1        0.0366
     28 C         145.6342  141.6259  163.7728 C.3     1  UNL1        0.2525
     29 O         145.2004  142.7824  164.6238 O.3     1  UNL1       -0.4714
@<TRIPOS>BOND
     1    28    29    1
     2    29    22    1
     3    22    23   ar
     4    23    24   ar
     5    24    25   ar
     6    25    21    1
     7    21    18    1
     8    18    19    1
     9    18    20    1
    10    18    16    1
    11    16     1    1
    12     1     2    1
    13     2     3    1
    14     2     5    1
    15     5     6    1
    16     6     7    1
    17     7     8   ar
    18     8     9   ar
    19     9    10   ar
    20    10    11   ar
    21    11    12    1
    22    11    13   ar
    23    13    14    1
    24    14    15    3
    25    25    26   ar
    26    26    27   ar
    27    27    22   ar
    28    13     7   ar
    29    16    17    1
    30     3     4    1
@<TRIPOS>MOLECULE
*****
 29 30 0 0 0
SMALL
GASTEIGER

@<TRIPOS>ATOM
      1 C         139.9779  145.4142  162.3385 C.3     1  UNL1        0.1020
      2 C         138.8559  144.9007  163.1915 C.3     1  UNL1        0.1697
      3 O         137.4913  144.7081  162.5994 O.3     1  UNL1       -0.3793
      4 H         137.5066  144.9603  161.6629 H       1  UNL1        0.2106
      5 C         139.0986  144.5799  164.6365 C.3     1  UNL1        0.2358
      6 O         140.2587  143.7133  165.0277 O.3     1  UNL1       -0.4721
      7 C         140.0445  142.5376  165.9344 C.ar    1  UNL1        0.1490
      8 C         140.7056  142.4982  167.2803 C.ar    1  UNL1        0.0377
      9 C         140.4915  141.3226  168.1869 C.ar    1  UNL1        0.0040
     10 C         139.6161  140.1864  167.7477 C.ar    1  UNL1        0.0123
     11 C         138.9550  140.2259  166.4018 C.ar    1  UNL1        0.0702
     12 CL        138.0796  139.0897  165.9626 Cl      1  UNL1       -0.0814
     13 C         139.1692  141.4015  165.4952 C.ar    1  UNL1        0.1128
     14 C         138.5080  141.4410  164.1493 C.1     1  UNL1        0.1043
     15 N         137.8469  141.4805  162.8035 N.1     1  UNL1       -0.1907
     16 N         141.3148  145.7053  162.9533 N.3     1  UNL1       -0.2972
     17 H         141.5600  146.6589  162.6870 H       1  UNL1        0.1233
     18 C         142.4973  144.8448  162.6193 C.3     1  UNL1        0.0461
     19 C         143.1665  145.2704  163.8924 C.3     1  UNL1        0.0161
     20 C         141.8281  144.4192  161.3462 C.3     1  UNL1        0.0161
     21 C         143.6797  143.9844  162.2854 C.3     1  UNL1        0.0408
     22 C         144.3493  140.1235  164.4977 C.ar    1  UNL1        0.1387
     23 C         142.9543  140.6259  164.2714 C.ar    1  UNL1        0.0366
     24 C         142.7311  141.9129  163.5339 C.ar    1  UNL1       -0.0011
     25 C         143.9029  142.6974  163.0228 C.ar    1  UNL1       -0.0207
     26 C         145.2980  142.1950  163.2492 C.ar    1  UNL1       -0.0011
     27 C         145.5212  140.9080  163.9866 C.ar    1  UNL1        0.0366
     28 C         143.5118  138.3039  166.1523 C.3     1  UNL1        0.2525
     29 O         144.5726  138.8365  165.2352 O.3     1  UNL1       -0.4714
@<TRIPOS>BOND
     1    28    29    1
     2    29    22    1
     3    22    23   ar
     4    23    24   ar
     5    24    25   ar
     6    25    21    1
     7    21    18    1
     8    18    19    1
     9    18    20    1
    10    18    16    1
    11    16     1    1
    12     1     2    1
    13     2     3    1
    14     2     5    1
    15     5     6    1
    16     6     7    1
    17     7     8   ar
    18     8     9   ar
    19     9    10   ar
    20    10    11   ar
    21    11    12    1
    22    11    13   ar
    23    13    14    1
    24    14    15    3
    25    25    26   ar
    26    26    27   ar
    27    27    22   ar
    28    13     7   ar
    29    16    17    1
    30     3     4    1
@<TRIPOS>MOLECULE
*****
 29 30 0 0 0
SMALL
GASTEIGER

@<TRIPOS>ATOM
      1 C         139.4780  137.6323  163.5515 C.3     1  UNL1        0.1020
      2 C         138.4653  138.3538  162.7125 C.3     1  UNL1        0.1697
      3 O         137.6802  137.6059  161.6760 O.3     1  UNL1       -0.3793
      4 H         137.9475  136.6735  161.6785 H       1  UNL1        0.2106
      5 C         138.2378  139.8233  162.9099 C.3     1  UNL1        0.2358
      6 O         137.7326  140.3336  164.2268 O.3     1  UNL1       -0.4721
      7 C         138.6984  140.8527  165.2504 C.ar    1  UNL1        0.1490
      8 C         139.4952  142.0921  164.9692 C.ar    1  UNL1        0.0377
      9 C         140.4610  142.6112  165.9928 C.ar    1  UNL1        0.0040
     10 C         140.6300  141.8909  167.2976 C.ar    1  UNL1        0.0123
     11 C         139.8332  140.6515  167.5788 C.ar    1  UNL1        0.0702
     12 CL        140.0022  139.9313  168.8837 Cl      1  UNL1       -0.0814
     13 C         138.8674  140.1325  166.5552 C.ar    1  UNL1        0.1128
     14 C         138.0706  138.8931  166.8365 C.1     1  UNL1        0.1043
     15 N         137.2738  137.6537  167.1177 N.1     1  UNL1       -0.1907
     16 N         140.8024  137.2465  162.9622 N.3     1  UNL1       -0.2972
     17 H         140.8985  136.2389  163.0883 H       1  UNL1        0.1233
     18 C         142.0643  137.8702  163.4807 C.3     1  UNL1        0.0461
     19 C         141.4775  137.9100  164.8606 C.3     1  UNL1        0.0161
     20 C         142.6510  137.8304  162.1008 C.3     1  UNL1        0.0161
     21 C         143.3260  138.4938  163.9992 C.3     1  UNL1        0.0408
     22 C         144.2536  142.7988  163.0735 C.ar    1  UNL1        0.1387
     23 C         145.3672  141.8387  163.3703 C.ar    1  UNL1        0.0366
     24 C         145.0580  140.4037  163.6789 C.ar    1  UNL1       -0.0011
     25 C         143.6352  139.9288  163.6907 C.ar    1  UNL1       -0.0207
     26 C         142.5217  140.8889  163.3938 C.ar    1  UNL1       -0.0011
     27 C         142.8309  142.3239  163.0852 C.ar    1  UNL1        0.0366
     28 C         143.6938  145.3239  163.3182 C.3     1  UNL1        0.2525
     29 O         144.5628  144.2337  162.7649 O.3     1  UNL1       -0.4714
@<TRIPOS>BOND
     1    28    29    1
     2    29    22    1
     3    22    23   ar
     4    23    24   ar
     5    24    25   ar
     6    25    21    1
     7    21    18    1
     8    18    19    1
     9    18    20    1
    10    18    16    1
    11    16     1    1
    12     1     2    1
    13     2     3    1
    14     2     5    1
    15     5     6    1
    16     6     7    1
    17     7     8   ar
    18     8     9   ar
    19     9    10   ar
    20    10    11   ar
    21    11    12    1
    22    11    13   ar
    23    13    14    1
    24    14    15    3
    25    25    26   ar
    26    26    27   ar
    27    27    22   ar
    28    13     7   ar
    29    16    17    1
    30     3     4    1
@<TRIPOS>MOLECULE
*****
 29 30 0 0 0
SMALL
GASTEIGER

@<TRIPOS>ATOM
      1 C         140.7958  145.3319  162.6928 C.3     1  UNL1        0.1020
      2 C         142.1419  144.8508  163.1474 C.3     1  UNL1        0.1697
      3 O         143.3665  145.1822  162.3470 O.3     1  UNL1       -0.3793
      4 H         143.1138  145.7090  161.5727 H       1  UNL1        0.2106
      5 C         142.2634  144.0383  164.4024 C.3     1  UNL1        0.2358
      6 O         143.0541  142.7637  164.3971 O.3     1  UNL1       -0.4721
      7 C         142.9031  141.7826  165.5217 C.ar    1  UNL1        0.1490
      8 C         142.3962  142.2436  166.8561 C.ar    1  UNL1        0.0377
      9 C         142.2452  141.2626  167.9807 C.ar    1  UNL1        0.0040
     10 C         142.6011  139.8206  167.7709 C.ar    1  UNL1        0.0123
     11 C         143.1080  139.3597  166.4366 C.ar    1  UNL1        0.0702
     12 CL        143.4638  137.9176  166.2268 Cl      1  UNL1       -0.0814
     13 C         143.2590  140.3407  165.3120 C.ar    1  UNL1        0.1128
     14 C         143.7659  139.8797  163.9776 C.1     1  UNL1        0.1043
     15 N         144.2727  139.4187  162.6432 N.1     1  UNL1       -0.1907
     16 N         139.6914  145.5223  163.6897 N.3     1  UNL1       -0.2972
     17 H         140.1345  145.7417  164.5818 H       1  UNL1        0.1233
     18 C         138.7176  144.4117  163.9515 C.3     1  UNL1        0.0461
     19 C         138.7380  144.0507  162.4957 C.3     1  UNL1        0.0161
     20 C         138.6973  144.7726  165.4073 C.3     1  UNL1        0.0161
     21 C         137.7440  143.3011  164.2132 C.3     1  UNL1        0.0408
     22 C         139.0865  139.0160  163.9207 C.ar    1  UNL1        0.1387
     23 C         139.6334  139.9012  165.0011 C.ar    1  UNL1        0.0366
     24 C         139.1858  141.3296  165.0986 C.ar    1  UNL1       -0.0011
     25 C         138.1915  141.8727  164.1157 C.ar    1  UNL1       -0.0207
     26 C         137.6446  140.9876  163.0353 C.ar    1  UNL1       -0.0011
     27 C         138.0922  139.5592  162.9378 C.ar    1  UNL1        0.0366
     28 C         140.9664  137.2701  163.5108 C.3     1  UNL1        0.2525
     29 O         139.5341  137.5877  163.8231 O.3     1  UNL1       -0.4714
@<TRIPOS>BOND
     1    28    29    1
     2    29    22    1
     3    22    23   ar
     4    23    24   ar
     5    24    25   ar
     6    25    21    1
     7    21    18    1
     8    18    19    1
     9    18    20    1
    10    18    16    1
    11    16     1    1
    12     1     2    1
    13     2     3    1
    14     2     5    1
    15     5     6    1
    16     6     7    1
    17     7     8   ar
    18     8     9   ar
    19     9    10   ar
    20    10    11   ar
    21    11    12    1
    22    11    13   ar
    23    13    14    1
    24    14    15    3
    25    25    26   ar
    26    26    27   ar
    27    27    22   ar
    28    13     7   ar
    29    16    17    1
    30     3     4    1
@<TRIPOS>MOLECULE
*****
 29 30 0 0 0
SMALL
GASTEIGER

@<TRIPOS>ATOM
      1 C         142.1531  137.8816  161.2943 C.3     1  UNL1        0.1020
      2 C         143.3454  138.7726  161.4801 C.3     1  UNL1        0.1697
      3 O         144.6952  138.3293  160.9989 O.3     1  UNL1       -0.3793
      4 H         144.6219  137.4504  160.5950 H       1  UNL1        0.2106
      5 C         143.1879  140.1069  162.1470 C.3     1  UNL1        0.2358
      6 O         144.0676  140.4751  163.3048 O.3     1  UNL1       -0.4721
      7 C         143.6068  140.2167  164.7088 C.ar    1  UNL1        0.1490
      8 C         143.7882  138.8589  165.3198 C.ar    1  UNL1        0.0377
      9 C         143.3274  138.6005  166.7236 C.ar    1  UNL1        0.0040
     10 C         142.6852  139.7000  167.5165 C.ar    1  UNL1        0.0123
     11 C         142.5038  141.0578  166.9055 C.ar    1  UNL1        0.0702
     12 CL        141.8615  142.1573  167.6984 Cl      1  UNL1       -0.0814
     13 C         142.9645  141.3162  165.5016 C.ar    1  UNL1        0.1128
     14 C         142.7831  142.6741  164.8906 C.1     1  UNL1        0.1043
     15 N         142.6016  144.0319  164.2796 N.1     1  UNL1       -0.1907
     16 N         141.5826  137.1381  162.4656 N.3     1  UNL1       -0.2972
     17 H         141.4605  136.1700  162.1686 H       1  UNL1        0.1233
     18 C         140.2799  137.5739  163.0682 C.3     1  UNL1        0.0461
     19 C         139.7992  138.0077  161.7152 C.3     1  UNL1        0.0161
     20 C         140.7607  137.1401  164.4212 C.3     1  UNL1        0.0161
     21 C         138.9773  138.0097  163.6708 C.3     1  UNL1        0.0408
     22 C         138.1414  142.3865  164.2995 C.ar    1  UNL1        0.1387
     23 C         137.4058  141.6278  163.2349 C.ar    1  UNL1        0.0366
     24 C         137.6845  140.1689  163.0254 C.ar    1  UNL1       -0.0011
     25 C         138.6987  139.4686  163.8804 C.ar    1  UNL1       -0.0207
     26 C         139.4342  140.2273  164.9449 C.ar    1  UNL1       -0.0011
     27 C         139.1556  141.6863  165.1544 C.ar    1  UNL1        0.0366
     28 C         138.8301  144.6899  165.2843 C.3     1  UNL1        0.2525
     29 O         137.8628  143.8454  164.5090 O.3     1  UNL1       -0.4714
@<TRIPOS>BOND
     1    28    29    1
     2    29    22    1
     3    22    23   ar
     4    23    24   ar
     5    24    25   ar
     6    25    21    1
     7    21    18    1
     8    18    19    1
     9    18    20    1
    10    18    16    1
    11    16     1    1
    12     1     2    1
    13     2     3    1
    14     2     5    1
    15     5     6    1
    16     6     7    1
    17     7     8   ar
    18     8     9   ar
    19     9    10   ar
    20    10    11   ar
    21    11    12    1
    22    11    13   ar
    23    13    14    1
    24    14    15    3
    25    25    26   ar
    26    26    27   ar
    27    27    22   ar
    28    13     7   ar
    29    16    17    1
    30     3     4    1
@<TRIPOS>MOLECULE
*****
 29 30 0 0 0
SMALL
GASTEIGER

@<TRIPOS>ATOM
      1 C         142.6721  144.9795  163.8410 C.3     1  UNL1        0.1020
      2 C         141.7291  144.6415  162.7245 C.3     1  UNL1        0.1697
      3 O         142.0059  145.1325  161.3344 O.3     1  UNL1       -0.3793
      4 H         142.8269  145.6491  161.3315 H       1  UNL1        0.2106
      5 C         140.5094  143.8125  162.9981 C.3     1  UNL1        0.2358
      6 O         139.8297  143.8960  164.3326 O.3     1  UNL1       -0.4721
      7 C         139.8924  142.7348  165.2802 C.ar    1  UNL1        0.1490
      8 C         140.9030  142.7252  166.3887 C.ar    1  UNL1        0.0377
      9 C         140.9657  141.5641  167.3363 C.ar    1  UNL1        0.0040
     10 C         140.0179  140.4127  167.1754 C.ar    1  UNL1        0.0123
     11 C         139.0074  140.4224  166.0669 C.ar    1  UNL1        0.0702
     12 CL        138.0595  139.2709  165.9060 Cl      1  UNL1       -0.0814
     13 C         138.9446  141.5834  165.1193 C.ar    1  UNL1        0.1128
     14 C         137.9341  141.5931  164.0108 C.1     1  UNL1        0.1043
     15 N         136.9236  141.6028  162.9024 N.1     1  UNL1       -0.1907
     16 N         144.0989  144.5204  163.7826 N.3     1  UNL1       -0.2972
     17 H         144.4466  144.7572  162.8533 H       1  UNL1        0.1233
     18 C         144.4323  143.0764  164.0147 C.3     1  UNL1        0.0461
     19 C         144.1077  143.2356  165.4704 C.3     1  UNL1        0.0161
     20 C         144.7569  142.9173  162.5589 C.3     1  UNL1        0.0161
     21 C         144.7656  141.6325  164.2469 C.3     1  UNL1        0.0408
     22 C         141.4987  138.5378  164.2271 C.ar    1  UNL1        0.1387
     23 C         142.6313  138.4265  165.2042 C.ar    1  UNL1        0.0366
     24 C         143.7203  139.4581  165.2108 C.ar    1  UNL1       -0.0011
     25 C         143.6766  140.6009  164.2403 C.ar    1  UNL1       -0.0207
     26 C         142.5440  140.7122  163.2632 C.ar    1  UNL1       -0.0011
     27 C         141.4551  139.6806  163.2566 C.ar    1  UNL1        0.0366
     28 C         139.3430  137.5485  163.1668 C.3     1  UNL1        0.2525
     29 O         140.4097  137.5062  164.2205 O.3     1  UNL1       -0.4714
@<TRIPOS>BOND
     1    28    29    1
     2    29    22    1
     3    22    23   ar
     4    23    24   ar
     5    24    25   ar
     6    25    21    1
     7    21    18    1
     8    18    19    1
     9    18    20    1
    10    18    16    1
    11    16     1    1
    12     1     2    1
    13     2     3    1
    14     2     5    1
    15     5     6    1
    16     6     7    1
    17     7     8   ar
    18     8     9   ar
    19     9    10   ar
    20    10    11   ar
    21    11    12    1
    22    11    13   ar
    23    13    14    1
    24    14    15    3
    25    25    26   ar
    26    26    27   ar
    27    27    22   ar
    28    13     7   ar
    29    16    17    1
    30     3     4    1
@<TRIPOS>MOLECULE
*****
 29 30 0 0 0
SMALL
GASTEIGER

@<TRIPOS>ATOM
      1 C         141.7550  144.3312  161.2016 C.3     1  UNL1        0.1020
      2 C         140.6673  145.2105  160.6594 C.3     1  UNL1        0.1697
      3 O         140.3395  145.1821  159.1959 O.3     1  UNL1       -0.3793
      4 H         140.9191  144.5469  158.7470 H       1  UNL1        0.2106
      5 C         139.9076  146.1182  161.5807 C.3     1  UNL1        0.2358
      6 O         138.6942  145.6103  162.3015 O.3     1  UNL1       -0.4721
      7 C         138.8292  144.5157  163.3183 C.ar    1  UNL1        0.1490
      8 C         139.2379  144.8439  164.7237 C.ar    1  UNL1        0.0377
      9 C         139.3729  143.7494  165.7405 C.ar    1  UNL1        0.0040
     10 C         139.0993  142.3268  165.3518 C.ar    1  UNL1        0.0123
     11 C         138.6906  141.9986  163.9463 C.ar    1  UNL1        0.0702
     12 CL        138.4169  140.5758  163.5577 Cl      1  UNL1       -0.0814
     13 C         138.5556  143.0931  162.9296 C.ar    1  UNL1        0.1128
     14 C         138.1469  142.7649  161.5241 C.1     1  UNL1        0.1043
     15 N         137.7382  142.4367  160.1187 N.1     1  UNL1       -0.1907
     16 N         142.9710  144.9438  161.8307 N.3     1  UNL1       -0.2972
     17 H         143.6779  145.0134  161.0986 H       1  UNL1        0.1233
     18 C         143.6262  144.2757  163.0031 C.3     1  UNL1        0.0461
     19 C         144.4758  143.4675  162.0677 C.3     1  UNL1        0.0161
     20 C         142.7765  145.0838  163.9385 C.3     1  UNL1        0.0161
     21 C         144.2813  143.6076  164.1754 C.3     1  UNL1        0.0408
     22 C         141.9893  140.6098  166.6269 C.ar    1  UNL1        0.1387
     23 C         142.7107  141.7374  167.3036 C.ar    1  UNL1        0.0366
     24 C         143.4747  142.7367  166.4864 C.ar    1  UNL1       -0.0011
     25 C         143.5173  142.6083  164.9926 C.ar    1  UNL1       -0.0207
     26 C         142.7959  141.4807  164.3159 C.ar    1  UNL1       -0.0011
     27 C         142.0319  140.4814  165.1330 C.ar    1  UNL1        0.0366
     28 C         140.3023  140.0783  168.5299 C.3     1  UNL1        0.2525
     29 O         141.2252  139.6105  167.4440 O.3     1  UNL1       -0.4714
@<TRIPOS>BOND
     1    28    29    1
     2    29    22    1
     3    22    23   ar
     4    23    24   ar
     5    24    25   ar
     6    25    21    1
     7    21    18    1
     8    18    19    1
     9    18    20    1
    10    18    16    1
    11    16     1    1
    12     1     2    1
    13     2     3    1
    14     2     5    1
    15     5     6    1
    16     6     7    1
    17     7     8   ar
    18     8     9   ar
    19     9    10   ar
    20    10    11   ar
    21    11    12    1
    22    11    13   ar
    23    13    14    1
    24    14    15    3
    25    25    26   ar
    26    26    27   ar
    27    27    22   ar
    28    13     7   ar
    29    16    17    1
    30     3     4    1
@<TRIPOS>MOLECULE
*****
 29 30 0 0 0
SMALL
GASTEIGER

@<TRIPOS>ATOM
      1 C         138.2680  139.5177  162.8388 C.3     1  UNL1        0.1020
      2 C         138.6252  138.3192  162.0105 C.3     1  UNL1        0.1697
      3 O         137.5996  137.2567  161.7474 O.3     1  UNL1       -0.3793
      4 H         136.7661  137.4974  162.1813 H       1  UNL1        0.2106
      5 C         140.0079  138.1833  161.4452 C.3     1  UNL1        0.2358
      6 O         141.0336  137.3569  162.1628 O.3     1  UNL1       -0.4721
      7 C         141.8307  137.9574  163.2827 C.ar    1  UNL1        0.1490
      8 C         141.3352  137.8551  164.6948 C.ar    1  UNL1        0.0377
      9 C         142.1323  138.4555  165.8146 C.ar    1  UNL1        0.0040
     10 C         143.4248  139.1582  165.5224 C.ar    1  UNL1        0.0123
     11 C         143.9203  139.2605  164.1103 C.ar    1  UNL1        0.0702
     12 CL        145.2130  139.9633  163.8181 Cl      1  UNL1       -0.0814
     13 C         143.1233  138.6601  162.9904 C.ar    1  UNL1        0.1128
     14 C         143.6188  138.7624  161.5783 C.1     1  UNL1        0.1043
     15 N         144.1142  138.8647  160.1662 N.1     1  UNL1       -0.1907
     16 N         139.0549  140.7871  162.6998 N.3     1  UNL1       -0.2972
     17 H         139.9559  140.5321  162.2952 H       1  UNL1        0.1233
     18 C         139.3450  141.6260  163.9090 C.3     1  UNL1        0.0461
     19 C         137.8743  141.8366  164.1156 C.3     1  UNL1        0.0161
     20 C         140.8157  141.4154  163.7024 C.3     1  UNL1        0.0161
     21 C         139.6350  142.4649  165.1181 C.3     1  UNL1        0.0408
     22 C         141.0027  140.5134  168.9353 C.ar    1  UNL1        0.1387
     23 C         141.7065  141.7351  168.4236 C.ar    1  UNL1        0.0366
     24 C         141.2506  142.3856  167.1512 C.ar    1  UNL1       -0.0011
     25 C         140.0909  141.8144  166.3905 C.ar    1  UNL1       -0.0207
     26 C         139.3870  140.5927  166.9022 C.ar    1  UNL1       -0.0011
     27 C         139.8429  139.9422  168.1746 C.ar    1  UNL1        0.0366
     28 C         142.8956  139.9598  170.6266 C.3     1  UNL1        0.2525
     29 O         141.4586  139.8628  170.2077 O.3     1  UNL1       -0.4714
@<TRIPOS>BOND
     1    28    29    1
     2    29    22    1
     3    22    23   ar
     4    23    24   ar
     5    24    25   ar
     6    25    21    1
     7    21    18    1
     8    18    19    1
     9    18    20    1
    10    18    16    1
    11    16     1    1
    12     1     2    1
    13     2     3    1
    14     2     5    1
    15     5     6    1
    16     6     7    1
    17     7     8   ar
    18     8     9   ar
    19     9    10   ar
    20    10    11   ar
    21    11    12    1
    22    11    13   ar
    23    13    14    1
    24    14    15    3
    25    25    26   ar
    26    26    27   ar
    27    27    22   ar
    28    13     7   ar
    29    16    17    1
    30     3     4    1
