@<TRIPOS>MOLECULE
*****
 35 37 0 0 0
SMALL
GASTEIGER

@<TRIPOS>ATOM
      1 C         138.5808  140.9249  164.6953 C.3     1  UNL1        0.0785
      2 C         138.2653  139.6676  165.4501 C.3     1  UNL1        0.0372
      3 C         138.7985  139.4726  166.8384 C.3     1  UNL1        0.0738
      4 N         139.6471  140.5348  167.4721 N.3     1  UNL1       -0.2738
      5 C         139.9626  141.7921  166.7173 C.3     1  UNL1        0.0738
      6 C         139.4294  141.9871  165.3290 C.3     1  UNL1        0.0372
      7 C         138.0437  139.9755  162.3373 C.2     1  UNL1        0.2560
      8 O         138.5728  138.6359  162.7562 O.2     1  UNL1       -0.2721
      9 N         138.0476  141.1200  163.3069 N.am    1  UNL1       -0.2749
     10 C         137.5105  140.1706  160.9489 C.3     1  UNL1        0.2272
     11 C         139.4787  139.5234  159.3812 C.3     1  UNL1        0.1748
     12 O         138.0531  139.3518  159.8153 O.3     1  UNL1       -0.3417
     13 C         137.5185  142.4596  162.8880 C.3     1  UNL1        0.1207
     14 C         138.4571  143.5074  162.3672 C.ar    1  UNL1        0.0047
     15 C         139.3311  143.3837  161.1544 C.ar    1  UNL1        0.0049
     16 C         140.1007  144.6627  161.0054 C.ar    1  UNL1        0.0352
     17 S         139.7023  145.5767  162.1261 S.2     1  UNL1       -0.0862
     18 C         138.6865  144.8627  162.9677 C.ar    1  UNL1        0.0328
     19 C         140.1803  140.3397  168.8605 C.3     1  UNL1        0.0592
     20 C         139.4235  140.8802  170.0374 C.3     1  UNL1        0.0174
     21 C         141.4703  139.6040  169.0720 C.3     1  UNL1        0.0372
     22 C         142.6631  139.9213  168.2197 C.3     1  UNL1        0.0911
     23 N         142.5588  139.8443  166.7253 N.am    1  UNL1       -0.3008
     24 C         143.3095  138.7844  165.9747 C.2     1  UNL1        0.2467
     25 O         144.1643  137.8016  166.7186 O.2     1  UNL1       -0.2701
     26 H         141.9978  140.4893  166.2370 H       1  UNL1        0.1497
     27 C         143.2052  138.7073  164.4804 C.ar    1  UNL1        0.0630
     28 C         144.1938  139.4381  163.6209 C.ar    1  UNL1       -0.0140
     29 C         145.2866  140.2459  164.2558 C.3     1  UNL1        0.0313
     30 C         144.0896  139.3610  162.1265 C.ar    1  UNL1        0.0267
     31 C         142.9968  138.5532  161.4916 C.ar    1  UNL1        0.1376
     32 CL        142.8925  138.4761  159.9972 Cl      1  UNL1       -0.0614
     33 N         142.0081  137.8224  162.3510 N.ar    1  UNL1       -0.2381
     34 C         142.1124  137.8994  163.8454 C.ar    1  UNL1        0.0643
     35 C         141.1238  137.1687  164.7049 C.3     1  UNL1        0.0523
@<TRIPOS>BOND
     1    11    12    1
     2    12    10    1
     3    10     7    1
     4     7     8    2
     5     7     9   am
     6     9    13    1
     7    13    14    1
     8    14    15   ar
     9    15    16   ar
    10    16    17   ar
    11    17    18   ar
    12     9     1    1
    13     1     2    1
    14     2     3    1
    15     3     4    1
    16     4    19    1
    17    19    20    1
    18    19    21    1
    19    21    22    1
    20    22    23    1
    21    23    24   am
    22    24    25    2
    23    24    27    1
    24    27    28   ar
    25    28    29    1
    26    28    30   ar
    27    30    31   ar
    28    31    32    1
    29    31    33   ar
    30    33    34   ar
    31    34    35    1
    32     4     5    1
    33     5     6    1
    34    18    14   ar
    35     6     1    1
    36    34    27   ar
    37    23    26    1
@<TRIPOS>MOLECULE
*****
 35 37 0 0 0
SMALL
GASTEIGER

@<TRIPOS>ATOM
      1 C         140.5393  143.3711  165.2925 C.3     1  UNL1        0.0785
      2 C         141.9655  142.9427  165.1123 C.3     1  UNL1        0.0372
      3 C         142.7369  142.3951  166.2763 C.3     1  UNL1        0.0738
      4 N         142.0822  142.2761  167.6206 N.3     1  UNL1       -0.2738
      5 C         140.6561  142.7046  167.8009 C.3     1  UNL1        0.0738
      6 C         139.8847  143.2521  166.6369 C.3     1  UNL1        0.0372
      7 C         140.3538  145.0155  163.2896 C.2     1  UNL1        0.2560
      8 O         141.7112  145.5648  163.6148 O.2     1  UNL1       -0.2721
      9 N         139.7678  143.9187  164.1285 N.am    1  UNL1       -0.2749
     10 C         139.5823  145.5630  162.1256 C.3     1  UNL1        0.2272
     11 C         140.8219  144.2341  160.2688 C.3     1  UNL1        0.1748
     12 O         139.5561  144.8160  160.8251 O.3     1  UNL1       -0.3417
     13 C         138.4104  143.3694  163.8033 C.3     1  UNL1        0.1207
     14 C         138.2798  142.0058  163.1921 C.ar    1  UNL1        0.0047
     15 C         138.3573  140.6997  163.9258 C.ar    1  UNL1        0.0049
     16 C         138.1742  139.5955  162.9271 C.ar    1  UNL1        0.0352
     17 S         137.9835  140.2192  161.5763 S.2     1  UNL1       -0.0862
     18 C         138.0488  141.7088  161.7401 C.ar    1  UNL1        0.0328
     19 C         142.8538  141.7286  168.7847 C.3     1  UNL1        0.0592
     20 C         143.9522  142.5402  169.4049 C.3     1  UNL1        0.0174
     21 C         142.5267  140.3694  169.3286 C.3     1  UNL1        0.0372
     22 C         142.6017  139.1664  168.4358 C.3     1  UNL1        0.0911
     23 N         142.4010  139.3163  166.9569 N.am    1  UNL1       -0.3008
     24 C         143.1884  138.4673  166.0033 C.2     1  UNL1        0.2467
     25 O         144.1765  137.4684  166.5287 O.2     1  UNL1       -0.2701
     26 H         141.7525  139.9719  166.6121 H       1  UNL1        0.1497
     27 C         142.9877  138.6171  164.5244 C.ar    1  UNL1        0.0630
     28 C         141.8233  137.9502  163.8541 C.ar    1  UNL1       -0.0140
     29 C         140.8595  137.1335  164.6628 C.3     1  UNL1        0.0313
     30 C         141.6226  138.1001  162.3752 C.ar    1  UNL1        0.0267
     31 C         142.5863  138.9169  161.5665 C.ar    1  UNL1        0.1376
     32 CL        142.3856  139.0667  160.0876 Cl      1  UNL1       -0.0614
     33 N         143.7508  139.5838  162.2367 N.ar    1  UNL1       -0.2381
     34 C         143.9516  139.4339  163.7157 C.ar    1  UNL1        0.0643
     35 C         145.1160  140.1008  164.3859 C.3     1  UNL1        0.0523
@<TRIPOS>BOND
     1    11    12    1
     2    12    10    1
     3    10     7    1
     4     7     8    2
     5     7     9   am
     6     9    13    1
     7    13    14    1
     8    14    15   ar
     9    15    16   ar
    10    16    17   ar
    11    17    18   ar
    12     9     1    1
    13     1     2    1
    14     2     3    1
    15     3     4    1
    16     4    19    1
    17    19    20    1
    18    19    21    1
    19    21    22    1
    20    22    23    1
    21    23    24   am
    22    24    25    2
    23    24    27    1
    24    27    28   ar
    25    28    29    1
    26    28    30   ar
    27    30    31   ar
    28    31    32    1
    29    31    33   ar
    30    33    34   ar
    31    34    35    1
    32     4     5    1
    33     5     6    1
    34    18    14   ar
    35     6     1    1
    36    34    27   ar
    37    23    26    1
@<TRIPOS>MOLECULE
*****
 35 37 0 0 0
SMALL
GASTEIGER

@<TRIPOS>ATOM
      1 C         139.6381  142.0042  164.9222 C.3     1  UNL1        0.0785
      2 C         140.4525  142.8054  165.8942 C.3     1  UNL1        0.0372
      3 C         140.7056  142.2769  167.2750 C.3     1  UNL1        0.0738
      4 N         140.1444  140.9472  167.6837 N.3     1  UNL1       -0.2738
      5 C         139.3300  140.1461  166.7117 C.3     1  UNL1        0.0738
      6 C         139.0769  140.6746  165.3309 C.3     1  UNL1        0.0372
      7 C         138.4549  143.6924  163.3410 C.2     1  UNL1        0.2560
      8 O         137.7781  144.3236  164.5215 O.2     1  UNL1       -0.2721
      9 N         139.3849  142.5327  163.5413 N.am    1  UNL1       -0.2749
     10 C         138.2017  144.2209  161.9602 C.3     1  UNL1        0.2272
     11 C         140.1956  145.8688  162.2029 C.3     1  UNL1        0.1748
     12 O         139.1457  145.2162  161.3533 O.3     1  UNL1       -0.3417
     13 C         140.0617  141.9014  162.3609 C.3     1  UNL1        0.1207
     14 C         141.4066  142.3944  161.9153 C.ar    1  UNL1        0.0047
     15 C         142.5135  142.8667  162.8107 C.ar    1  UNL1        0.0049
     16 C         143.6716  143.2658  161.9449 C.ar    1  UNL1        0.0352
     17 S         143.2804  143.0401  160.5144 S.2     1  UNL1       -0.0862
     18 C         141.8805  142.5015  160.4962 C.ar    1  UNL1        0.0328
     19 C         140.3976  140.4188  169.0646 C.3     1  UNL1        0.0592
     20 C         139.2568  140.2496  170.0237 C.3     1  UNL1        0.0174
     21 C         141.7915  140.0595  169.4862 C.3     1  UNL1        0.0372
     22 C         142.6773  139.2789  168.5610 C.3     1  UNL1        0.0911
     23 N         142.4892  139.3838  167.0766 N.am    1  UNL1       -0.3008
     24 C         143.3260  138.5482  166.1537 C.2     1  UNL1        0.2467
     25 O         144.3507  137.6077  166.7152 O.2     1  UNL1       -0.2701
     26 H         141.8166  140.0010  166.7080 H       1  UNL1        0.1497
     27 C         143.1379  138.6530  164.6692 C.ar    1  UNL1        0.0630
     28 C         144.1073  139.4468  163.8446 C.ar    1  UNL1       -0.0140
     29 C         145.2648  140.1358  164.5045 C.3     1  UNL1        0.0313
     30 C         143.9192  139.5517  162.3601 C.ar    1  UNL1        0.0267
     31 C         142.7617  138.8628  161.7003 C.ar    1  UNL1        0.1376
     32 CL        142.5736  138.9676  160.2158 Cl      1  UNL1       -0.0614
     33 N         141.7922  138.0689  162.5249 N.ar    1  UNL1       -0.2381
     34 C         141.9803  137.9640  164.0093 C.ar    1  UNL1        0.0643
     35 C         141.0109  137.1702  164.8339 C.3     1  UNL1        0.0523
@<TRIPOS>BOND
     1    11    12    1
     2    12    10    1
     3    10     7    1
     4     7     8    2
     5     7     9   am
     6     9    13    1
     7    13    14    1
     8    14    15   ar
     9    15    16   ar
    10    16    17   ar
    11    17    18   ar
    12     9     1    1
    13     1     2    1
    14     2     3    1
    15     3     4    1
    16     4    19    1
    17    19    20    1
    18    19    21    1
    19    21    22    1
    20    22    23    1
    21    23    24   am
    22    24    25    2
    23    24    27    1
    24    27    28   ar
    25    28    29    1
    26    28    30   ar
    27    30    31   ar
    28    31    32    1
    29    31    33   ar
    30    33    34   ar
    31    34    35    1
    32     4     5    1
    33     5     6    1
    34    18    14   ar
    35     6     1    1
    36    34    27   ar
    37    23    26    1
@<TRIPOS>MOLECULE
*****
 35 37 0 0 0
SMALL
GASTEIGER

@<TRIPOS>ATOM
      1 C         139.7128  139.7726  164.9524 C.3     1  UNL1        0.0785
      2 C         141.1415  139.3234  164.8677 C.3     1  UNL1        0.0372
      3 C         142.0384  139.4463  166.0636 C.3     1  UNL1        0.0738
      4 N         141.5067  140.0184  167.3443 N.3     1  UNL1       -0.2738
      5 C         140.0781  140.4676  167.4290 C.3     1  UNL1        0.0738
      6 C         139.1812  140.3447  166.2330 C.3     1  UNL1        0.0372
      7 C         138.8674  138.4167  162.9038 C.2     1  UNL1        0.2560
      8 O         139.8160  137.3065  163.2471 O.2     1  UNL1       -0.2721
      9 N         138.8158  139.6497  163.7564 N.am    1  UNL1       -0.2749
     10 C         137.9704  138.2937  161.7078 C.3     1  UNL1        0.2272
     11 C         137.9069  140.0712  159.8140 C.3     1  UNL1        0.1748
     12 O         138.4359  138.7814  160.3679 O.3     1  UNL1       -0.3417
     13 C         137.8672  140.7598  163.4131 C.3     1  UNL1        0.1207
     14 C         138.3981  142.1167  163.0569 C.ar    1  UNL1        0.0047
     15 C         139.7101  142.4024  162.3882 C.ar    1  UNL1        0.0049
     16 C         139.8331  143.8885  162.2248 C.ar    1  UNL1        0.0352
     17 S         138.5972  144.5211  162.7925 S.2     1  UNL1       -0.0862
     18 C         137.7103  143.4261  163.3067 C.ar    1  UNL1        0.0328
     19 C         142.4038  140.1413  168.5403 C.3     1  UNL1        0.0592
     20 C         142.3537  139.1064  169.6248 C.3     1  UNL1        0.0174
     21 C         143.3508  141.2992  168.6516 C.3     1  UNL1        0.0372
     22 C         143.1407  142.5235  167.8108 C.3     1  UNL1        0.0911
     23 N         143.1429  142.4153  166.3147 N.am    1  UNL1       -0.3008
     24 C         144.1634  143.1645  165.5101 C.2     1  UNL1        0.2467
     25 O         145.1817  144.0217  166.2015 O.2     1  UNL1       -0.2701
     26 H         142.4745  141.8527  165.8609 H       1  UNL1        0.1497
     27 C         144.1656  143.0563  164.0140 C.ar    1  UNL1        0.0630
     28 C         144.8220  141.8837  163.3477 C.ar    1  UNL1       -0.0140
     29 C         145.4763  140.8192  164.1776 C.3     1  UNL1        0.0313
     30 C         144.8242  141.7755  161.8516 C.ar    1  UNL1        0.0267
     31 C         144.1699  142.8400  161.0218 C.ar    1  UNL1        0.1376
     32 CL        144.1720  142.7319  159.5257 Cl      1  UNL1       -0.0614
     33 N         143.5134  144.0128  161.6880 N.ar    1  UNL1       -0.2381
     34 C         143.5112  144.1209  163.1841 C.ar    1  UNL1        0.0643
     35 C         142.8548  145.2936  163.8504 C.3     1  UNL1        0.0523
@<TRIPOS>BOND
     1    11    12    1
     2    12    10    1
     3    10     7    1
     4     7     8    2
     5     7     9   am
     6     9    13    1
     7    13    14    1
     8    14    15   ar
     9    15    16   ar
    10    16    17   ar
    11    17    18   ar
    12     9     1    1
    13     1     2    1
    14     2     3    1
    15     3     4    1
    16     4    19    1
    17    19    20    1
    18    19    21    1
    19    21    22    1
    20    22    23    1
    21    23    24   am
    22    24    25    2
    23    24    27    1
    24    27    28   ar
    25    28    29    1
    26    28    30   ar
    27    30    31   ar
    28    31    32    1
    29    31    33   ar
    30    33    34   ar
    31    34    35    1
    32     4     5    1
    33     5     6    1
    34    18    14   ar
    35     6     1    1
    36    34    27   ar
    37    23    26    1
@<TRIPOS>MOLECULE
*****
 35 37 0 0 0
SMALL
GASTEIGER

@<TRIPOS>ATOM
      1 C         140.6273  143.3310  165.3690 C.3     1  UNL1        0.0785
      2 C         142.0559  142.9254  165.1575 C.3     1  UNL1        0.0372
      3 C         142.8560  142.3743  166.3003 C.3     1  UNL1        0.0738
      4 N         142.2277  142.2288  167.6545 N.3     1  UNL1       -0.2738
      5 C         140.7992  142.6343  167.8660 C.3     1  UNL1        0.0738
      6 C         139.9990  143.1854  166.7232 C.3     1  UNL1        0.0372
      7 C         138.4999  143.2757  163.8787 C.2     1  UNL1        0.2560
      8 O         137.9729  142.1181  164.6740 O.2     1  UNL1       -0.2721
      9 N         139.8271  143.8821  164.2262 N.am    1  UNL1       -0.2749
     10 C         137.6996  143.8267  162.7360 C.3     1  UNL1        0.2272
     11 C         138.5708  141.9406  161.1760 C.3     1  UNL1        0.1748
     12 O         137.8570  143.2468  161.3616 O.3     1  UNL1       -0.3417
     13 C         140.3541  145.0396  163.4309 C.3     1  UNL1        0.1207
     14 C         140.8376  144.8268  162.0270 C.ar    1  UNL1        0.0047
     15 C         141.8554  143.8158  161.5888 C.ar    1  UNL1        0.0049
     16 C         142.0351  143.9518  160.1058 C.ar    1  UNL1        0.0352
     17 S         141.1283  145.0469  159.6275 S.2     1  UNL1       -0.0862
     18 C         140.3883  145.5876  160.8149 C.ar    1  UNL1        0.0328
     19 C         143.0280  141.6776  168.7973 C.3     1  UNL1        0.0592
     20 C         143.8556  142.5970  169.6456 C.3     1  UNL1        0.0174
     21 C         143.0005  140.2071  169.0918 C.3     1  UNL1        0.0372
     22 C         142.0594  139.3099  168.3439 C.3     1  UNL1        0.0911
     23 N         142.0362  139.3304  166.8442 N.am    1  UNL1       -0.3008
     24 C         143.0621  138.5593  166.0676 C.2     1  UNL1        0.2467
     25 O         144.1112  137.7678  166.7907 O.2     1  UNL1       -0.2701
     26 H         141.3477  139.8499  166.3696 H       1  UNL1        0.1497
     27 C         143.0389  138.5799  164.5679 C.ar    1  UNL1        0.0630
     28 C         141.9761  137.8271  163.8239 C.ar    1  UNL1       -0.0140
     29 C         140.9365  137.0537  164.5796 C.3     1  UNL1        0.0313
     30 C         141.9529  137.8476  162.3242 C.ar    1  UNL1        0.0267
     31 C         142.9925  138.6210  161.5686 C.ar    1  UNL1        0.1376
     32 CL        142.9693  138.6415  160.0689 Cl      1  UNL1       -0.0614
     33 N         144.0554  139.3738  162.3126 N.ar    1  UNL1       -0.2381
     34 C         144.0786  139.3533  163.8123 C.ar    1  UNL1        0.0643
     35 C         145.1415  140.1061  164.5563 C.3     1  UNL1        0.0523
@<TRIPOS>BOND
     1    11    12    1
     2    12    10    1
     3    10     7    1
     4     7     8    2
     5     7     9   am
     6     9    13    1
     7    13    14    1
     8    14    15   ar
     9    15    16   ar
    10    16    17   ar
    11    17    18   ar
    12     9     1    1
    13     1     2    1
    14     2     3    1
    15     3     4    1
    16     4    19    1
    17    19    20    1
    18    19    21    1
    19    21    22    1
    20    22    23    1
    21    23    24   am
    22    24    25    2
    23    24    27    1
    24    27    28   ar
    25    28    29    1
    26    28    30   ar
    27    30    31   ar
    28    31    32    1
    29    31    33   ar
    30    33    34   ar
    31    34    35    1
    32     4     5    1
    33     5     6    1
    34    18    14   ar
    35     6     1    1
    36    34    27   ar
    37    23    26    1
@<TRIPOS>MOLECULE
*****
 35 37 0 0 0
SMALL
GASTEIGER

@<TRIPOS>ATOM
      1 C         141.6082  143.7540  160.7314 C.3     1  UNL1        0.0785
      2 C         141.4142  144.3466  162.0956 C.3     1  UNL1        0.0372
      3 C         142.3846  144.0314  163.1951 C.3     1  UNL1        0.0738
      4 N         143.5491  143.1236  162.9303 N.3     1  UNL1       -0.2738
      5 C         143.7430  142.5311  161.5660 C.3     1  UNL1        0.0738
      6 C         142.7726  142.8463  160.4666 C.3     1  UNL1        0.0372
      7 C         141.0168  145.0390  158.5521 C.2     1  UNL1        0.2560
      8 O         142.3663  145.6936  158.5719 O.2     1  UNL1       -0.2721
      9 N         140.6377  144.0692  159.6318 N.am    1  UNL1       -0.2749
     10 C         140.0464  145.3542  157.4526 C.3     1  UNL1        0.2272
     11 C         138.9986  147.1756  155.9245 C.3     1  UNL1        0.1748
     12 O         139.5812  146.7650  157.2444 O.3     1  UNL1       -0.3417
     13 C         139.2882  143.4147  159.6121 C.3     1  UNL1        0.1207
     14 C         138.9375  142.3878  160.6478 C.ar    1  UNL1        0.0047
     15 C         139.4436  140.9767  160.6969 C.ar    1  UNL1        0.0049
     16 C         138.8380  140.3085  161.8957 C.ar    1  UNL1        0.0352
     17 S         137.9575  141.3068  162.5873 S.2     1  UNL1       -0.0862
     18 C         138.0190  142.5919  161.8160 C.ar    1  UNL1        0.0328
     19 C         144.5195  142.8084  164.0298 C.3     1  UNL1        0.0592
     20 C         144.5585  143.6613  165.2631 C.3     1  UNL1        0.0174
     21 C         145.4510  141.6403  163.8960 C.3     1  UNL1        0.0372
     22 C         144.9092  140.2419  163.9247 C.3     1  UNL1        0.0911
     23 N         143.6626  139.9363  164.7010 N.am    1  UNL1       -0.3008
     24 C         142.3567  139.7611  163.9840 C.2     1  UNL1        0.2467
     25 O         142.2975  139.8914  162.4909 O.2     1  UNL1       -0.2701
     26 H         143.7015  139.8508  165.6810 H       1  UNL1        0.1497
     27 C         141.1101  139.4555  164.7603 C.ar    1  UNL1        0.0630
     28 C         140.4532  138.1137  164.6264 C.ar    1  UNL1       -0.0140
     29 C         141.0429  137.0775  163.7162 C.3     1  UNL1        0.0313
     30 C         139.2066  137.8081  165.4027 C.ar    1  UNL1        0.0267
     31 C         138.6169  138.8443  166.3128 C.ar    1  UNL1        0.1376
     32 CL        137.3703  138.5388  167.0891 Cl      1  UNL1       -0.0614
     33 N         139.2738  140.1862  166.4468 N.ar    1  UNL1       -0.2381
     34 C         140.5204  140.4918  165.6705 C.ar    1  UNL1        0.0643
     35 C         141.1773  141.8336  165.8044 C.3     1  UNL1        0.0523
@<TRIPOS>BOND
     1    11    12    1
     2    12    10    1
     3    10     7    1
     4     7     8    2
     5     7     9   am
     6     9    13    1
     7    13    14    1
     8    14    15   ar
     9    15    16   ar
    10    16    17   ar
    11    17    18   ar
    12     9     1    1
    13     1     2    1
    14     2     3    1
    15     3     4    1
    16     4    19    1
    17    19    20    1
    18    19    21    1
    19    21    22    1
    20    22    23    1
    21    23    24   am
    22    24    25    2
    23    24    27    1
    24    27    28   ar
    25    28    29    1
    26    28    30   ar
    27    30    31   ar
    28    31    32    1
    29    31    33   ar
    30    33    34   ar
    31    34    35    1
    32     4     5    1
    33     5     6    1
    34    18    14   ar
    35     6     1    1
    36    34    27   ar
    37    23    26    1
@<TRIPOS>MOLECULE
*****
 35 37 0 0 0
SMALL
GASTEIGER

@<TRIPOS>ATOM
      1 C         141.6287  143.2409  161.1875 C.3     1  UNL1        0.0785
      2 C         141.1678  141.8488  160.8722 C.3     1  UNL1        0.0372
      3 C         141.8292  140.6732  161.5283 C.3     1  UNL1        0.0738
      4 N         142.9514  140.8897  162.4997 N.3     1  UNL1       -0.2738
      5 C         143.4123  142.2818  162.8151 C.3     1  UNL1        0.0738
      6 C         142.7509  143.4574  162.1590 C.3     1  UNL1        0.0372
      7 C         141.2895  144.7600  159.1073 C.2     1  UNL1        0.2560
      8 O         142.2731  143.9276  158.3392 O.2     1  UNL1       -0.2721
      9 N         140.9673  144.4166  160.5315 N.am    1  UNL1       -0.2749
     10 C         140.6282  145.9356  158.4512 C.3     1  UNL1        0.2272
     11 C         140.7925  146.2733  155.8804 C.3     1  UNL1        0.1748
     12 O         140.0331  145.7935  157.0817 O.3     1  UNL1       -0.3417
     13 C         139.9838  145.2489  161.2995 C.3     1  UNL1        0.1207
     14 C         139.3120  144.6841  162.5160 C.ar    1  UNL1        0.0047
     15 C         138.1604  143.7230  162.5209 C.ar    1  UNL1        0.0049
     16 C         137.8105  143.4262  163.9491 C.ar    1  UNL1        0.0352
     17 S         138.7460  144.2038  164.8268 S.2     1  UNL1       -0.0862
     18 C         139.6740  144.9813  163.9411 C.ar    1  UNL1        0.0328
     19 C         143.6128  139.7140  163.1558 C.3     1  UNL1        0.0592
     20 C         144.9080  139.8955  163.8902 C.3     1  UNL1        0.0174
     21 C         142.9789  138.3568  163.0774 C.3     1  UNL1        0.0372
     22 C         141.8049  138.0257  163.9504 C.3     1  UNL1        0.0911
     23 N         141.6974  138.6244  165.3215 N.am    1  UNL1       -0.3008
     24 C         140.8288  139.8260  165.5493 C.2     1  UNL1        0.2467
     25 O         140.0676  140.4288  164.4059 O.2     1  UNL1       -0.2701
     26 H         142.1970  138.2288  166.0719 H       1  UNL1        0.1497
     27 C         140.7213  140.4247  166.9204 C.ar    1  UNL1        0.0630
     28 C         139.5666  140.0647  167.8076 C.ar    1  UNL1       -0.0140
     29 C         138.5194  139.1060  167.3236 C.3     1  UNL1        0.0313
     30 C         139.4591  140.6633  169.1787 C.ar    1  UNL1        0.0267
     31 C         140.5063  141.6220  169.6627 C.ar    1  UNL1        0.1376
     32 CL        140.3989  142.2207  171.0338 Cl      1  UNL1       -0.0614
     33 N         141.6611  141.9821  168.7755 N.ar    1  UNL1       -0.2381
     34 C         141.7686  141.3834  167.4044 C.ar    1  UNL1        0.0643
     35 C         142.9232  141.7434  166.5172 C.3     1  UNL1        0.0523
@<TRIPOS>BOND
     1    11    12    1
     2    12    10    1
     3    10     7    1
     4     7     8    2
     5     7     9   am
     6     9    13    1
     7    13    14    1
     8    14    15   ar
     9    15    16   ar
    10    16    17   ar
    11    17    18   ar
    12     9     1    1
    13     1     2    1
    14     2     3    1
    15     3     4    1
    16     4    19    1
    17    19    20    1
    18    19    21    1
    19    21    22    1
    20    22    23    1
    21    23    24   am
    22    24    25    2
    23    24    27    1
    24    27    28   ar
    25    28    29    1
    26    28    30   ar
    27    30    31   ar
    28    31    32    1
    29    31    33   ar
    30    33    34   ar
    31    34    35    1
    32     4     5    1
    33     5     6    1
    34    18    14   ar
    35     6     1    1
    36    34    27   ar
    37    23    26    1
@<TRIPOS>MOLECULE
*****
 35 37 0 0 0
SMALL
GASTEIGER

@<TRIPOS>ATOM
      1 C         142.1580  140.4823  160.5143 C.3     1  UNL1        0.0785
      2 C         140.7116  140.8129  160.7349 C.3     1  UNL1        0.0372
      3 C         140.3055  142.2187  161.0646 C.3     1  UNL1        0.0738
      4 N         141.3458  143.2939  161.1737 N.3     1  UNL1       -0.2738
      5 C         142.7921  142.9632  160.9531 C.3     1  UNL1        0.0738
      6 C         143.1982  141.5574  160.6234 C.3     1  UNL1        0.0372
      7 C         142.3793  138.5493  158.7925 C.2     1  UNL1        0.2560
      8 O         141.7883  139.4280  157.7301 O.2     1  UNL1       -0.2721
      9 N         142.5642  139.0764  160.1846 N.am    1  UNL1       -0.2749
     10 C         142.7855  137.1435  158.4628 C.3     1  UNL1        0.2272
     11 C         142.9554  135.1995  156.7475 C.3     1  UNL1        0.1748
     12 O         142.6657  136.6388  157.0553 O.3     1  UNL1       -0.3417
     13 C         143.1552  138.1978  161.2470 C.3     1  UNL1        0.1207
     14 C         142.4935  138.0952  162.5893 C.ar    1  UNL1        0.0047
     15 C         141.1855  137.4201  162.8781 C.ar    1  UNL1        0.0049
     16 C         140.9072  137.5574  164.3457 C.ar    1  UNL1        0.0352
     17 S         142.0432  138.3174  164.9638 S.2     1  UNL1       -0.0862
     18 C         143.0236  138.6498  163.8782 C.ar    1  UNL1        0.0328
     19 C         140.9396  144.6997  161.5034 C.3     1  UNL1        0.0592
     20 C         140.4842  145.6241  160.4134 C.3     1  UNL1        0.0174
     21 C         140.9888  145.1812  162.9232 C.3     1  UNL1        0.0372
     22 C         141.6778  144.3580  163.9708 C.3     1  UNL1        0.0911
     23 N         141.1112  143.0285  164.3726 N.am    1  UNL1       -0.3008
     24 C         139.9030  142.9651  165.2594 C.2     1  UNL1        0.2467
     25 O         139.2615  144.2313  165.7444 O.2     1  UNL1       -0.2701
     26 H         141.5323  142.1975  164.0542 H       1  UNL1        0.1497
     27 C         139.3365  141.6356  165.6611 C.ar    1  UNL1        0.0630
     28 C         139.8142  140.9646  166.9147 C.ar    1  UNL1       -0.0140
     29 C         140.8585  141.6232  167.7666 C.3     1  UNL1        0.0313
     30 C         139.2477  139.6351  167.3165 C.ar    1  UNL1        0.0267
     31 C         138.2033  138.9766  166.4646 C.ar    1  UNL1        0.1376
     32 CL        137.6368  137.6471  166.8664 Cl      1  UNL1       -0.0614
     33 N         137.7255  139.6476  165.2110 N.ar    1  UNL1       -0.2381
     34 C         138.2921  140.9771  164.8092 C.ar    1  UNL1        0.0643
     35 C         137.8143  141.6480  163.5557 C.3     1  UNL1        0.0523
@<TRIPOS>BOND
     1    11    12    1
     2    12    10    1
     3    10     7    1
     4     7     8    2
     5     7     9   am
     6     9    13    1
     7    13    14    1
     8    14    15   ar
     9    15    16   ar
    10    16    17   ar
    11    17    18   ar
    12     9     1    1
    13     1     2    1
    14     2     3    1
    15     3     4    1
    16     4    19    1
    17    19    20    1
    18    19    21    1
    19    21    22    1
    20    22    23    1
    21    23    24   am
    22    24    25    2
    23    24    27    1
    24    27    28   ar
    25    28    29    1
    26    28    30   ar
    27    30    31   ar
    28    31    32    1
    29    31    33   ar
    30    33    34   ar
    31    34    35    1
    32     4     5    1
    33     5     6    1
    34    18    14   ar
    35     6     1    1
    36    34    27   ar
    37    23    26    1
@<TRIPOS>MOLECULE
*****
 35 37 0 0 0
SMALL
GASTEIGER

@<TRIPOS>ATOM
      1 C         139.1106  140.2003  162.1088 C.3     1  UNL1        0.0785
      2 C         138.6570  141.2702  163.0573 C.3     1  UNL1        0.0372
      3 C         138.4961  140.9602  164.5160 C.3     1  UNL1        0.0738
      4 N         138.7888  139.5803  165.0263 N.3     1  UNL1       -0.2738
      5 C         139.2424  138.5105  164.0778 C.3     1  UNL1        0.0738
      6 C         139.4033  138.8205  162.6191 C.3     1  UNL1        0.0372
      7 C         138.1518  140.2226  159.6942 C.2     1  UNL1        0.2560
      8 O         136.8712  139.6249  160.1972 O.2     1  UNL1       -0.2721
      9 N         139.2715  140.5103  160.6500 N.am    1  UNL1       -0.2749
     10 C         138.3126  140.5325  158.2355 C.3     1  UNL1        0.2272
     11 C         139.8387  138.7103  157.1864 C.3     1  UNL1        0.1748
     12 O         138.5188  139.4201  157.2506 O.3     1  UNL1       -0.3417
     13 C         140.5520  141.1079  160.1470 C.3     1  UNL1        0.1207
     14 C         140.6862  142.5966  160.0207 C.ar    1  UNL1        0.0047
     15 C         141.6013  143.3226  159.0797 C.ar    1  UNL1        0.0049
     16 C         141.4095  144.7953  159.2905 C.ar    1  UNL1        0.0352
     17 S         140.3758  144.9794  160.3618 S.2     1  UNL1       -0.0862
     18 C         139.9287  143.6205  160.8130 C.ar    1  UNL1        0.0328
     19 C         138.6279  139.2703  166.4851 C.3     1  UNL1        0.0592
     20 C         137.5815  138.2936  166.9334 C.3     1  UNL1        0.0174
     21 C         139.5135  139.9371  167.4957 C.3     1  UNL1        0.0372
     22 C         140.9989  139.9651  167.2888 C.3     1  UNL1        0.0911
     23 N         141.5619  140.2898  165.9369 N.am    1  UNL1       -0.3008
     24 C         142.6569  141.3066  165.8050 C.2     1  UNL1        0.2467
     25 O         143.1888  141.9985  167.0249 O.2     1  UNL1       -0.2701
     26 H         141.2127  139.8357  165.1362 H       1  UNL1        0.1497
     27 C         143.2198  141.6313  164.4531 C.ar    1  UNL1        0.0630
     28 C         144.2969  140.7704  163.8626 C.ar    1  UNL1       -0.0140
     29 C         144.8109  139.5847  164.6241 C.3     1  UNL1        0.0313
     30 C         144.8599  141.0951  162.5108 C.ar    1  UNL1        0.0267
     31 C         144.3458  142.2808  161.7493 C.ar    1  UNL1        0.1376
     32 CL        144.9088  142.6056  160.3975 Cl      1  UNL1       -0.0614
     33 N         143.2687  143.1419  162.3398 N.ar    1  UNL1       -0.2381
     34 C         142.7057  142.8171  163.6917 C.ar    1  UNL1        0.0643
     35 C         141.6287  143.6781  164.2821 C.3     1  UNL1        0.0523
@<TRIPOS>BOND
     1    11    12    1
     2    12    10    1
     3    10     7    1
     4     7     8    2
     5     7     9   am
     6     9    13    1
     7    13    14    1
     8    14    15   ar
     9    15    16   ar
    10    16    17   ar
    11    17    18   ar
    12     9     1    1
    13     1     2    1
    14     2     3    1
    15     3     4    1
    16     4    19    1
    17    19    20    1
    18    19    21    1
    19    21    22    1
    20    22    23    1
    21    23    24   am
    22    24    25    2
    23    24    27    1
    24    27    28   ar
    25    28    29    1
    26    28    30   ar
    27    30    31   ar
    28    31    32    1
    29    31    33   ar
    30    33    34   ar
    31    34    35    1
    32     4     5    1
    33     5     6    1
    34    18    14   ar
    35     6     1    1
    36    34    27   ar
    37    23    26    1
