@<TRIPOS>MOLECULE
*****
 20 20 0 0 0
SMALL
GASTEIGER

@<TRIPOS>ATOM
      1 N         144.5036  143.0870  164.0532 N.3     1  UNL1       -0.2690
      2 C         144.1140  144.1548  163.0744 C.3     1  UNL1        0.0724
      3 C         143.0001  145.1038  163.4037 C.3     1  UNL1        0.0188
      4 C         145.3688  141.9441  163.6114 C.3     1  UNL1        0.0724
      5 C         144.7475  140.7330  162.9809 C.3     1  UNL1        0.0173
      6 C         144.5810  139.4740  163.7790 C.3     1  UNL1        0.0014
      7 C         143.2499  138.7840  163.8224 C.3     1  UNL1        0.0000
      8 C         142.7297  138.2384  165.1193 C.3     1  UNL1        0.0000
      9 C         143.0890  138.9416  167.5944 C.3     1  UNL1        0.0000
     10 C         143.5901  138.2754  166.3474 C.3     1  UNL1        0.0000
     11 C         144.0279  143.1621  165.4738 C.3     1  UNL1        0.0989
     12 C         142.9621  142.2244  165.9584 C.2     1  UNL1       -0.0088
     13 C         141.6796  142.0866  165.1928 C.2     1  UNL1       -0.0032
     14 C         140.6138  141.1489  165.6774 C.ar    1  UNL1       -0.0002
     15 C         140.4498  140.8949  167.1466 C.ar    1  UNL1        0.0009
     16 C         139.3840  139.9572  167.6312 C.ar    1  UNL1        0.0114
     17 C         138.4823  139.2735  166.6466 C.ar    1  UNL1        0.0577
     18 CL        137.4165  138.3358  167.1312 Cl      1  UNL1       -0.0822
     19 C         138.6463  139.5276  165.1775 C.ar    1  UNL1        0.0114
     20 C         139.7121  140.4653  164.6929 C.ar    1  UNL1        0.0009
@<TRIPOS>BOND
     1     9    10    1
     2    10     8    1
     3     8     7    1
     4     7     6    1
     5     6     5    1
     6     5     4    1
     7     4     1    1
     8     1     2    1
     9     2     3    1
    10     1    11    1
    11    11    12    1
    12    12    13    2
    13    13    14    1
    14    14    15   ar
    15    15    16   ar
    16    16    17   ar
    17    17    18    1
    18    17    19   ar
    19    19    20   ar
    20    20    14   ar
@<TRIPOS>MOLECULE
*****
 20 20 0 0 0
SMALL
GASTEIGER

@<TRIPOS>ATOM
      1 N         140.8685  141.3420  169.8187 N.3     1  UNL1       -0.2690
      2 C         140.3797  142.5628  170.5404 C.3     1  UNL1        0.0724
      3 C         140.3205  143.8816  169.8283 C.3     1  UNL1        0.0188
      4 C         142.3403  141.1179  169.6358 C.3     1  UNL1        0.0724
      5 C         143.1310  142.0234  168.7385 C.3     1  UNL1        0.0173
      6 C         142.7000  142.2340  167.3174 C.3     1  UNL1        0.0014
      7 C         143.0634  141.2273  166.2664 C.3     1  UNL1        0.0000
      8 C         142.1505  140.9998  165.0981 C.3     1  UNL1        0.0000
      9 C         142.5797  138.4417  165.2446 C.3     1  UNL1        0.0000
     10 C         141.9873  139.6207  164.5313 C.3     1  UNL1        0.0000
     11 C         139.8854  140.3453  169.2800 C.3     1  UNL1        0.0989
     12 C         139.8493  140.0465  167.8105 C.2     1  UNL1       -0.0088
     13 C         138.6312  139.4163  167.2030 C.2     1  UNL1       -0.0032
     14 C         138.5951  139.1175  165.7335 C.ar    1  UNL1       -0.0002
     15 C         138.9126  137.7368  165.2409 C.ar    1  UNL1        0.0009
     16 C         138.8765  137.4380  163.7714 C.ar    1  UNL1        0.0114
     17 C         138.5228  138.5199  162.7945 C.ar    1  UNL1        0.0577
     18 CL        138.4867  138.2212  161.3250 Cl      1  UNL1       -0.0822
     19 C         138.2053  139.9007  163.2872 C.ar    1  UNL1        0.0114
     20 C         138.2414  140.1994  164.7567 C.ar    1  UNL1        0.0009
@<TRIPOS>BOND
     1     9    10    1
     2    10     8    1
     3     8     7    1
     4     7     6    1
     5     6     5    1
     6     5     4    1
     7     4     1    1
     8     1     2    1
     9     2     3    1
    10     1    11    1
    11    11    12    1
    12    12    13    2
    13    13    14    1
    14    14    15   ar
    15    15    16   ar
    16    16    17   ar
    17    17    18    1
    18    17    19   ar
    19    19    20   ar
    20    20    14   ar
@<TRIPOS>MOLECULE
*****
 20 20 0 0 0
SMALL
GASTEIGER

@<TRIPOS>ATOM
      1 N         144.2463  143.1185  163.9587 N.3     1  UNL1       -0.2690
      2 C         145.1753  142.1586  163.2764 C.3     1  UNL1        0.0724
      3 C         145.5930  140.8968  163.9715 C.3     1  UNL1        0.0188
      4 C         143.5549  144.1864  163.1640 C.3     1  UNL1        0.0724
      5 C         142.5980  145.1233  163.8397 C.3     1  UNL1        0.0173
      6 C         141.1199  144.9486  163.6537 C.3     1  UNL1        0.0014
      7 C         140.2788  144.4263  164.7805 C.3     1  UNL1        0.0000
      8 C         138.8314  144.8083  164.8756 C.3     1  UNL1        0.0000
      9 C         137.8765  142.4171  164.5293 C.3     1  UNL1        0.0000
     10 C         137.7774  143.8987  164.3174 C.3     1  UNL1        0.0000
     11 C         144.0086  143.0105  165.4359 C.3     1  UNL1        0.0989
     12 C         142.8321  142.2360  165.9515 C.2     1  UNL1       -0.0088
     13 C         142.0966  141.2959  165.0431 C.2     1  UNL1       -0.0032
     14 C         140.9200  140.5214  165.5588 C.ar    1  UNL1       -0.0002
     15 C         140.4418  140.7315  166.9649 C.ar    1  UNL1        0.0009
     16 C         139.2653  139.9570  167.4805 C.ar    1  UNL1        0.0114
     17 C         138.5669  138.9724  166.5901 C.ar    1  UNL1        0.0577
     18 CL        137.3904  138.1979  167.1058 Cl      1  UNL1       -0.0822
     19 C         139.0452  138.7623  165.1840 C.ar    1  UNL1        0.0114
     20 C         140.2217  139.5368  164.6684 C.ar    1  UNL1        0.0009
@<TRIPOS>BOND
     1     9    10    1
     2    10     8    1
     3     8     7    1
     4     7     6    1
     5     6     5    1
     6     5     4    1
     7     4     1    1
     8     1     2    1
     9     2     3    1
    10     1    11    1
    11    11    12    1
    12    12    13    2
    13    13    14    1
    14    14    15   ar
    15    15    16   ar
    16    16    17   ar
    17    17    18    1
    18    17    19   ar
    19    19    20   ar
    20    20    14   ar
@<TRIPOS>MOLECULE
*****
 20 20 0 0 0
SMALL
GASTEIGER

@<TRIPOS>ATOM
      1 N         138.6111  143.9252  162.5744 N.3     1  UNL1       -0.2690
      2 C         139.5568  144.6705  161.6799 C.3     1  UNL1        0.0724
      3 C         139.8062  146.1325  161.9042 C.3     1  UNL1        0.0188
      4 C         137.8969  142.7090  162.0636 C.3     1  UNL1        0.0724
      5 C         137.6945  141.5253  162.9624 C.3     1  UNL1        0.0173
      6 C         138.8090  140.5434  163.1719 C.3     1  UNL1        0.0014
      7 C         138.5811  139.3165  164.0041 C.3     1  UNL1        0.0000
      8 C         139.4109  139.0774  165.2307 C.3     1  UNL1        0.0000
      9 C         137.6677  138.5600  167.0863 C.3     1  UNL1        0.0000
     10 C         138.8386  139.3549  166.5891 C.3     1  UNL1        0.0000
     11 C         138.3796  144.3959  163.9797 C.3     1  UNL1        0.0989
     12 C         139.4527  144.2258  165.0139 C.2     1  UNL1       -0.0088
     13 C         139.6337  142.9023  165.6962 C.2     1  UNL1       -0.0032
     14 C         140.7067  142.7322  166.7304 C.ar    1  UNL1       -0.0002
     15 C         140.3847  142.9203  168.1833 C.ar    1  UNL1        0.0009
     16 C         141.4577  142.7502  169.2175 C.ar    1  UNL1        0.0114
     17 C         142.8528  142.3919  168.7989 C.ar    1  UNL1        0.0577
     18 CL        143.9258  142.2218  169.8331 Cl      1  UNL1       -0.0822
     19 C         143.1749  142.2037  167.3460 C.ar    1  UNL1        0.0114
     20 C         142.1018  142.3739  166.3118 C.ar    1  UNL1        0.0009
@<TRIPOS>BOND
     1     9    10    1
     2    10     8    1
     3     8     7    1
     4     7     6    1
     5     6     5    1
     6     5     4    1
     7     4     1    1
     8     1     2    1
     9     2     3    1
    10     1    11    1
    11    11    12    1
    12    12    13    2
    13    13    14    1
    14    14    15   ar
    15    15    16   ar
    16    16    17   ar
    17    17    18    1
    18    17    19   ar
    19    19    20   ar
    20    20    14   ar
@<TRIPOS>MOLECULE
*****
 20 20 0 0 0
SMALL
GASTEIGER

@<TRIPOS>ATOM
      1 N         139.6087  137.8310  163.0516 N.3     1  UNL1       -0.2690
      2 C         141.0892  137.6291  162.9197 C.3     1  UNL1        0.0724
      3 C         141.9363  138.6877  162.2782 C.3     1  UNL1        0.0188
      4 C         138.8170  138.3560  161.8908 C.3     1  UNL1        0.0724
      5 C         137.9055  139.5329  162.0756 C.3     1  UNL1        0.0173
      6 C         138.4222  140.7892  162.7117 C.3     1  UNL1        0.0014
      7 C         137.4665  141.7596  163.3400 C.3     1  UNL1        0.0000
      8 C         137.8988  142.5822  164.5176 C.3     1  UNL1        0.0000
      9 C         138.5931  144.8937  165.4793 C.3     1  UNL1        0.0000
     10 C         137.9024  144.0794  164.4258 C.3     1  UNL1        0.0000
     11 C         138.9200  137.5080  164.3445 C.3     1  UNL1        0.0989
     12 C         138.9249  138.5039  165.4661 C.2     1  UNL1       -0.0088
     13 C         140.1409  139.3458  165.7163 C.2     1  UNL1       -0.0032
     14 C         140.1458  140.3417  166.8379 C.ar    1  UNL1       -0.0002
     15 C         139.6207  139.9532  168.1882 C.ar    1  UNL1        0.0009
     16 C         139.6256  140.9491  169.3098 C.ar    1  UNL1        0.0114
     17 C         140.1557  142.3336  169.0812 C.ar    1  UNL1        0.0577
     18 CL        140.1607  143.3295  170.2029 Cl      1  UNL1       -0.0822
     19 C         140.6809  142.7221  167.7310 C.ar    1  UNL1        0.0114
     20 C         140.6759  141.7261  166.6093 C.ar    1  UNL1        0.0009
@<TRIPOS>BOND
     1     9    10    1
     2    10     8    1
     3     8     7    1
     4     7     6    1
     5     6     5    1
     6     5     4    1
     7     4     1    1
     8     1     2    1
     9     2     3    1
    10     1    11    1
    11    11    12    1
    12    12    13    2
    13    13    14    1
    14    14    15   ar
    15    15    16   ar
    16    16    17   ar
    17    17    18    1
    18    17    19   ar
    19    19    20   ar
    20    20    14   ar
@<TRIPOS>MOLECULE
*****
 20 20 0 0 0
SMALL
GASTEIGER

@<TRIPOS>ATOM
      1 N         142.6730  138.7688  163.1752 N.3     1  UNL1       -0.2690
      2 C         143.0346  139.7069  162.0619 C.3     1  UNL1        0.0724
      3 C         144.4050  140.3143  162.0084 C.3     1  UNL1        0.0188
      4 C         141.7162  137.6411  162.9247 C.3     1  UNL1        0.0724
      5 C         140.2963  137.9338  162.5393 C.3     1  UNL1        0.0173
      6 C         139.1823  137.6367  163.4988 C.3     1  UNL1        0.0014
      7 C         139.4186  137.7374  164.9766 C.3     1  UNL1        0.0000
      8 C         138.5306  138.6027  165.8209 C.3     1  UNL1        0.0000
      9 C         139.1120  141.0721  165.2610 C.3     1  UNL1        0.0000
     10 C         138.1124  139.9558  165.3268 C.3     1  UNL1        0.0000
     11 C         143.2682  138.9585  164.5389 C.3     1  UNL1        0.0989
     12 C         142.6253  139.9002  165.5135 C.2     1  UNL1       -0.0088
     13 C         142.1948  139.4051  166.8623 C.2     1  UNL1       -0.0032
     14 C         141.5519  140.3468  167.8369 C.ar    1  UNL1       -0.0002
     15 C         140.3437  139.9134  168.6130 C.ar    1  UNL1        0.0009
     16 C         139.7007  140.8552  169.5876 C.ar    1  UNL1        0.0114
     17 C         140.2660  142.2303  169.7860 C.ar    1  UNL1        0.0577
     18 CL        139.6231  143.1721  170.7605 Cl      1  UNL1       -0.0822
     19 C         141.4742  142.6637  169.0099 C.ar    1  UNL1        0.0114
     20 C         142.1171  141.7220  168.0353 C.ar    1  UNL1        0.0009
@<TRIPOS>BOND
     1     9    10    1
     2    10     8    1
     3     8     7    1
     4     7     6    1
     5     6     5    1
     6     5     4    1
     7     4     1    1
     8     1     2    1
     9     2     3    1
    10     1    11    1
    11    11    12    1
    12    12    13    2
    13    13    14    1
    14    14    15   ar
    15    15    16   ar
    16    16    17   ar
    17    17    18    1
    18    17    19   ar
    19    19    20   ar
    20    20    14   ar
@<TRIPOS>MOLECULE
*****
 20 20 0 0 0
SMALL
GASTEIGER

@<TRIPOS>ATOM
      1 N         138.8580  144.2146  163.3750 N.3     1  UNL1       -0.2690
      2 C         139.8809  144.4582  162.3052 C.3     1  UNL1        0.0724
      3 C         140.3864  145.8478  162.0535 C.3     1  UNL1        0.0188
      4 C         137.5911  143.4809  163.0482 C.3     1  UNL1        0.0724
      5 C         137.6312  142.0115  162.7490 C.3     1  UNL1        0.0173
      6 C         137.7894  141.0229  163.8659 C.3     1  UNL1        0.0014
      7 C         138.4616  139.7061  163.6122 C.3     1  UNL1        0.0000
      8 C         139.3505  139.1037  164.6597 C.3     1  UNL1        0.0000
      9 C         138.2390  138.9484  167.0028 C.3     1  UNL1        0.0000
     10 C         138.7568  138.2801  165.7638 C.3     1  UNL1        0.0000
     11 C         139.1020  144.7046  164.7716 C.3     1  UNL1        0.0989
     12 C         139.5150  143.7399  165.8434 C.2     1  UNL1       -0.0088
     13 C         140.6310  142.7702  165.5902 C.2     1  UNL1       -0.0032
     14 C         141.0440  141.8055  166.6620 C.ar    1  UNL1       -0.0002
     15 C         142.1306  140.8068  166.3941 C.ar    1  UNL1        0.0009
     16 C         142.5436  139.8421  167.4659 C.ar    1  UNL1        0.0114
     17 C         141.8700  139.8762  168.8057 C.ar    1  UNL1        0.0577
     18 CL        142.2830  138.9115  169.8776 Cl      1  UNL1       -0.0822
     19 C         140.7834  140.8749  169.0737 C.ar    1  UNL1        0.0114
     20 C         140.3704  141.8395  168.0018 C.ar    1  UNL1        0.0009
@<TRIPOS>BOND
     1     9    10    1
     2    10     8    1
     3     8     7    1
     4     7     6    1
     5     6     5    1
     6     5     4    1
     7     4     1    1
     8     1     2    1
     9     2     3    1
    10     1    11    1
    11    11    12    1
    12    12    13    2
    13    13    14    1
    14    14    15   ar
    15    15    16   ar
    16    16    17   ar
    17    17    18    1
    18    17    19   ar
    19    19    20   ar
    20    20    14   ar
@<TRIPOS>MOLECULE
*****
 20 20 0 0 0
SMALL
GASTEIGER

@<TRIPOS>ATOM
      1 N         143.9262  143.5670  161.6488 N.3     1  UNL1       -0.2690
      2 C         142.7916  143.6102  160.6686 C.3     1  UNL1        0.0724
      3 C         141.5848  144.4537  160.9550 C.3     1  UNL1        0.0188
      4 C         144.9765  142.5023  161.5339 C.3     1  UNL1        0.0724
      5 C         144.7871  141.1843  162.2246 C.3     1  UNL1        0.0173
      6 C         145.3981  140.9503  163.5744 C.3     1  UNL1        0.0014
      7 C         145.0663  139.7051  164.3421 C.3     1  UNL1        0.0000
      8 C         143.6440  139.2373  164.4341 C.3     1  UNL1        0.0000
      9 C         141.5377  139.0925  165.9481 C.3     1  UNL1        0.0000
     10 C         143.0237  138.9823  165.7758 C.3     1  UNL1        0.0000
     11 C         144.0106  144.5887  162.7439 C.3     1  UNL1        0.0989
     12 C         143.6535  144.2110  164.1510 C.2     1  UNL1       -0.0088
     13 C         142.6200  143.1539  164.4046 C.2     1  UNL1       -0.0032
     14 C         142.2630  142.7763  165.8117 C.ar    1  UNL1       -0.0002
     15 C         143.3453  142.4630  166.8018 C.ar    1  UNL1        0.0009
     16 C         142.9883  142.0854  168.2089 C.ar    1  UNL1        0.0114
     17 C         141.5489  142.0210  168.6259 C.ar    1  UNL1        0.0577
     18 CL        141.1919  141.6434  170.0330 Cl      1  UNL1       -0.0822
     19 C         140.4666  142.3343  167.6358 C.ar    1  UNL1        0.0114
     20 C         140.8236  142.7119  166.2287 C.ar    1  UNL1        0.0009
@<TRIPOS>BOND
     1     9    10    1
     2    10     8    1
     3     8     7    1
     4     7     6    1
     5     6     5    1
     6     5     4    1
     7     4     1    1
     8     1     2    1
     9     2     3    1
    10     1    11    1
    11    11    12    1
    12    12    13    2
    13    13    14    1
    14    14    15   ar
    15    15    16   ar
    16    16    17   ar
    17    17    18    1
    18    17    19   ar
    19    19    20   ar
    20    20    14   ar
@<TRIPOS>MOLECULE
*****
 20 20 0 0 0
SMALL
GASTEIGER

@<TRIPOS>ATOM
      1 N         139.1356  144.3640  163.3077 N.3     1  UNL1       -0.2690
      2 C         139.7713  144.8570  162.0416 C.3     1  UNL1        0.0724
      3 C         139.8223  146.3277  161.7513 C.3     1  UNL1        0.0188
      4 C         137.7874  143.7081  163.2640 C.3     1  UNL1        0.0724
      5 C         137.6794  142.2302  163.0307 C.3     1  UNL1        0.0173
      6 C         137.7414  141.2814  164.1908 C.3     1  UNL1        0.0014
      7 C         138.1227  139.8479  163.9677 C.3     1  UNL1        0.0000
      8 C         139.0120  139.1465  164.9512 C.3     1  UNL1        0.0000
      9 C         137.5894  138.5072  167.0290 C.3     1  UNL1        0.0000
     10 C         138.7378  139.2571  166.4218 C.3     1  UNL1        0.0000
     11 C         139.8483  144.5269  164.6175 C.3     1  UNL1        0.0989
     12 C         140.5678  143.3618  165.2298 C.2     1  UNL1       -0.0088
     13 C         141.2364  142.3470  164.3506 C.2     1  UNL1       -0.0032
     14 C         141.9559  141.1819  164.9630 C.ar    1  UNL1       -0.0002
     15 C         141.9933  141.0231  166.4540 C.ar    1  UNL1        0.0009
     16 C         142.7128  139.8580  167.0664 C.ar    1  UNL1        0.0114
     17 C         143.3947  138.8517  166.1877 C.ar    1  UNL1        0.0577
     18 CL        144.1142  137.6866  166.8000 Cl      1  UNL1       -0.0822
     19 C         143.3573  139.0105  164.6966 C.ar    1  UNL1        0.0114
     20 C         142.6378  140.1756  164.0842 C.ar    1  UNL1        0.0009
@<TRIPOS>BOND
     1     9    10    1
     2    10     8    1
     3     8     7    1
     4     7     6    1
     5     6     5    1
     6     5     4    1
     7     4     1    1
     8     1     2    1
     9     2     3    1
    10     1    11    1
    11    11    12    1
    12    12    13    2
    13    13    14    1
    14    14    15   ar
    15    15    16   ar
    16    16    17   ar
    17    17    18    1
    18    17    19   ar
    19    19    20   ar
    20    20    14   ar
