@<TRIPOS>MOLECULE
*****
 31 35 0 0 0
SMALL
GASTEIGER

@<TRIPOS>ATOM
      1 C         141.6384  138.9540  163.7584 C.ar    1  UNL1        0.0878
      2 C         140.9705  138.1441  162.6869 C.ar    1  UNL1        0.0091
      3 C         139.5813  137.6197  162.8993 C.ar    1  UNL1        0.0194
      4 C         138.8599  137.9052  164.1831 C.ar    1  UNL1        0.0844
      5 N         139.5278  138.7150  165.2546 N.ar    1  UNL1       -0.2576
      6 C         138.8064  139.0005  166.5384 C.ar    1  UNL1        0.2672
      7 O         137.4172  138.4761  166.7507 O.2     1  UNL1       -0.2665
      8 C         139.4744  139.8104  167.6099 C.ar    1  UNL1        0.0742
      9 C         138.7530  140.0958  168.8937 C.ar    1  UNL1        0.0063
     10 C         139.4209  140.9056  169.9652 C.ar    1  UNL1        0.0003
     11 C         140.8101  141.4301  169.7529 C.ar    1  UNL1        0.0015
     12 C         141.4780  142.2399  170.8243 C.ar    1  UNL1        0.0000
     13 C         142.8672  142.7643  170.6120 C.ar    1  UNL1        0.0000
     14 C         143.5885  142.4788  169.3282 C.ar    1  UNL1        0.0000
     15 C         142.9207  141.6690  168.2567 C.ar    1  UNL1        0.0015
     16 C         141.5315  141.1446  168.4690 C.ar    1  UNL1        0.0179
     17 C         140.8635  140.3347  167.3975 C.ar    1  UNL1        0.0875
     18 N         141.5849  140.0493  166.1137 N.ar    1  UNL1       -0.2276
     19 C         140.9170  139.2394  165.0422 C.ar    1  UNL1        0.1543
     20 O         144.1976  138.7764  164.1694 O.2     1  UNL1       -0.2700
     21 C         143.0276  139.4783  163.5461 C.2     1  UNL1        0.2488
     22 N         143.2468  140.7046  162.7105 N.am    1  UNL1       -0.3007
     23 H         142.4789  141.1653  162.3014 H       1  UNL1        0.1497
     24 C         144.6361  141.2290  162.4982 C.3     1  UNL1        0.0911
     25 C         145.2615  142.1313  163.5203 C.3     1  UNL1        0.0386
     26 C         144.4375  142.6641  164.6548 C.3     1  UNL1        0.0738
     27 N         143.2589  143.5487  164.3749 N.3     1  UNL1       -0.2726
     28 C         141.8427  143.2902  164.7962 C.3     1  UNL1        0.0721
     29 C         140.9981  144.4289  164.3063 C.3     1  UNL1        0.0188
     30 C         141.8923  145.3912  163.5821 C.3     1  UNL1        0.0188
     31 C         143.2896  144.8472  163.6245 C.3     1  UNL1        0.0721
@<TRIPOS>BOND
     1    20    21    2
     2    21    22   am
     3    22    24    1
     4    24    25    1
     5    25    26    1
     6    26    27    1
     7    27    28    1
     8    28    29    1
     9    29    30    1
    10    30    31    1
    11    21     1    1
    12     1     2   ar
    13     2     3   ar
    14     3     4   ar
    15     4     5   ar
    16     5     6   ar
    17     6     7    2
    18     6     8   ar
    19     8     9   ar
    20     9    10   ar
    21    10    11   ar
    22    11    12   ar
    23    12    13   ar
    24    13    14   ar
    25    14    15   ar
    26    15    16   ar
    27    16    17   ar
    28    17    18   ar
    29    18    19   ar
    30    31    27    1
    31    19     1   ar
    32    19     5   ar
    33    17     8   ar
    34    16    11   ar
    35    22    23    1
@<TRIPOS>MOLECULE
*****
 31 35 0 0 0
SMALL
GASTEIGER

@<TRIPOS>ATOM
      1 C         141.1831  142.0752  161.4841 C.ar    1  UNL1        0.0878
      2 C         141.1267  141.7373  160.0237 C.ar    1  UNL1        0.0091
      3 C         140.4074  140.5029  159.5667 C.ar    1  UNL1        0.0194
      4 C         139.7447  139.6063  160.5701 C.ar    1  UNL1        0.0844
      5 N         139.8011  139.9441  162.0305 N.ar    1  UNL1       -0.2576
      6 C         139.1383  139.0475  163.0338 C.ar    1  UNL1        0.2672
      7 O         138.4191  137.8130  162.5769 O.2     1  UNL1       -0.2665
      8 C         139.1948  139.3853  164.4943 C.ar    1  UNL1        0.0742
      9 C         138.5320  138.4887  165.4976 C.ar    1  UNL1        0.0063
     10 C         138.5884  138.8265  166.9580 C.ar    1  UNL1        0.0003
     11 C         139.3077  140.0610  167.4150 C.ar    1  UNL1        0.0015
     12 C         139.3641  140.3988  168.8754 C.ar    1  UNL1        0.0000
     13 C         140.0833  141.6332  169.3323 C.ar    1  UNL1        0.0000
     14 C         140.7461  142.5299  168.3289 C.ar    1  UNL1        0.0000
     15 C         140.6897  142.1921  166.8686 C.ar    1  UNL1        0.0015
     16 C         139.9705  140.9576  166.4116 C.ar    1  UNL1        0.0179
     17 C         139.9140  140.6198  164.9512 C.ar    1  UNL1        0.0875
     18 N         140.5768  141.5164  163.9478 N.ar    1  UNL1       -0.2276
     19 C         140.5203  141.1786  162.4875 C.ar    1  UNL1        0.1543
     20 O         142.8604  144.0041  161.0191 O.2     1  UNL1       -0.2700
     21 C         141.9023  143.3096  161.9411 C.2     1  UNL1        0.2488
     22 N         141.6636  143.8497  163.3199 N.am    1  UNL1       -0.3007
     23 H         141.0348  143.3939  163.9251 H       1  UNL1        0.1497
     24 C         142.3828  145.0842  163.7769 C.3     1  UNL1        0.0911
     25 C         143.8219  145.0032  164.1924 C.3     1  UNL1        0.0386
     26 C         144.2973  143.8527  165.0292 C.3     1  UNL1        0.0738
     27 N         144.3847  142.4785  164.4344 N.3     1  UNL1       -0.2726
     28 C         145.1147  142.1062  163.1780 C.3     1  UNL1        0.0721
     29 C         144.9386  140.6328  162.9587 C.3     1  UNL1        0.0188
     30 C         144.0997  140.0944  164.0796 C.3     1  UNL1        0.0188
     31 C         143.7574  141.2351  164.9916 C.3     1  UNL1        0.0721
@<TRIPOS>BOND
     1    20    21    2
     2    21    22   am
     3    22    24    1
     4    24    25    1
     5    25    26    1
     6    26    27    1
     7    27    28    1
     8    28    29    1
     9    29    30    1
    10    30    31    1
    11    21     1    1
    12     1     2   ar
    13     2     3   ar
    14     3     4   ar
    15     4     5   ar
    16     5     6   ar
    17     6     7    2
    18     6     8   ar
    19     8     9   ar
    20     9    10   ar
    21    10    11   ar
    22    11    12   ar
    23    12    13   ar
    24    13    14   ar
    25    14    15   ar
    26    15    16   ar
    27    16    17   ar
    28    17    18   ar
    29    18    19   ar
    30    31    27    1
    31    19     1   ar
    32    19     5   ar
    33    17     8   ar
    34    16    11   ar
    35    22    23    1
@<TRIPOS>MOLECULE
*****
 31 35 0 0 0
SMALL
GASTEIGER

@<TRIPOS>ATOM
      1 C         139.4754  140.2098  167.1386 C.ar    1  UNL1        0.0878
      2 C         139.1374  139.8853  168.5636 C.ar    1  UNL1        0.0091
      3 C         140.0458  140.3323  169.6704 C.ar    1  UNL1        0.0194
      4 C         141.2922  141.1038  169.3522 C.ar    1  UNL1        0.0844
      5 N         141.6303  141.4283  167.9273 N.ar    1  UNL1       -0.2576
      6 C         142.8767  142.1998  167.6092 C.ar    1  UNL1        0.2672
      7 O         143.7850  142.6469  168.7160 O.2     1  UNL1       -0.2665
      8 C         143.2147  142.5243  166.1842 C.ar    1  UNL1        0.0742
      9 C         144.4611  143.2958  165.8661 C.ar    1  UNL1        0.0063
     10 C         144.7992  143.6203  164.4412 C.ar    1  UNL1        0.0003
     11 C         143.8908  143.1733  163.3344 C.ar    1  UNL1        0.0015
     12 C         144.2289  143.4978  161.9095 C.ar    1  UNL1        0.0000
     13 C         143.3205  143.0508  160.8027 C.ar    1  UNL1        0.0000
     14 C         142.0741  142.2793  161.1208 C.ar    1  UNL1        0.0000
     15 C         141.7360  141.9548  162.5457 C.ar    1  UNL1        0.0015
     16 C         142.6444  142.4018  163.6525 C.ar    1  UNL1        0.0179
     17 C         142.3063  142.0773  165.0775 C.ar    1  UNL1        0.0875
     18 N         141.0599  141.3058  165.3956 N.ar    1  UNL1       -0.2276
     19 C         140.7219  140.9813  166.8205 C.ar    1  UNL1        0.1543
     20 O         137.5417  138.6981  166.2869 O.2     1  UNL1       -0.2700
     21 C         138.5671  139.7628  166.0318 C.2     1  UNL1        0.2488
     22 N         138.6840  140.3805  164.6699 N.am    1  UNL1       -0.3007
     23 H         139.3570  141.0793  164.5024 H       1  UNL1        0.1497
     24 C         137.7756  139.9334  163.5631 C.3     1  UNL1        0.0911
     25 C         138.2719  138.9654  162.5303 C.3     1  UNL1        0.0386
     26 C         139.0785  137.7716  162.9476 C.3     1  UNL1        0.0738
     27 N         140.4700  137.9545  163.4769 N.3     1  UNL1       -0.2726
     28 C         140.9487  137.5771  164.8475 C.3     1  UNL1        0.0721
     29 C         142.4018  137.9362  164.9462 C.3     1  UNL1        0.0188
     30 C         142.8211  138.5356  163.6367 C.3     1  UNL1        0.0188
     31 C         141.6272  138.5469  162.7286 C.3     1  UNL1        0.0721
@<TRIPOS>BOND
     1    20    21    2
     2    21    22   am
     3    22    24    1
     4    24    25    1
     5    25    26    1
     6    26    27    1
     7    27    28    1
     8    28    29    1
     9    29    30    1
    10    30    31    1
    11    21     1    1
    12     1     2   ar
    13     2     3   ar
    14     3     4   ar
    15     4     5   ar
    16     5     6   ar
    17     6     7    2
    18     6     8   ar
    19     8     9   ar
    20     9    10   ar
    21    10    11   ar
    22    11    12   ar
    23    12    13   ar
    24    13    14   ar
    25    14    15   ar
    26    15    16   ar
    27    16    17   ar
    28    17    18   ar
    29    18    19   ar
    30    31    27    1
    31    19     1   ar
    32    19     5   ar
    33    17     8   ar
    34    16    11   ar
    35    22    23    1
@<TRIPOS>MOLECULE
*****
 31 35 0 0 0
SMALL
GASTEIGER

@<TRIPOS>ATOM
      1 C         142.8986  141.6817  163.4942 C.ar    1  UNL1        0.0878
      2 C         143.5740  141.0230  162.3280 C.ar    1  UNL1        0.0091
      3 C         144.1923  139.6658  162.4880 C.ar    1  UNL1        0.0194
      4 C         144.1354  138.9673  163.8142 C.ar    1  UNL1        0.0844
      5 N         143.4600  139.6259  164.9804 N.ar    1  UNL1       -0.2576
      6 C         143.4031  138.9273  166.3066 C.ar    1  UNL1        0.2672
      7 O         144.0214  137.5701  166.4665 O.2     1  UNL1       -0.2665
      8 C         142.7277  139.5860  167.4728 C.ar    1  UNL1        0.0742
      9 C         142.6707  138.8875  168.7990 C.ar    1  UNL1        0.0063
     10 C         141.9954  139.5461  169.9652 C.ar    1  UNL1        0.0003
     11 C         141.3769  140.9033  169.8053 C.ar    1  UNL1        0.0015
     12 C         140.7016  141.5619  170.9715 C.ar    1  UNL1        0.0000
     13 C         140.0832  142.9191  170.8115 C.ar    1  UNL1        0.0000
     14 C         140.1402  143.6177  169.4853 C.ar    1  UNL1        0.0000
     15 C         140.8155  142.9590  168.3191 C.ar    1  UNL1        0.0015
     16 C         141.4339  141.6019  168.4791 C.ar    1  UNL1        0.0179
     17 C         142.1093  140.9432  167.3128 C.ar    1  UNL1        0.0875
     18 N         142.1663  141.6417  165.9866 N.ar    1  UNL1       -0.2276
     19 C         142.8416  140.9831  164.8204 C.ar    1  UNL1        0.1543
     20 O         143.0077  144.1100  162.5770 O.2     1  UNL1       -0.2700
     21 C         142.2802  143.0389  163.3343 C.2     1  UNL1        0.2488
     22 N         140.9343  143.3250  163.9315 N.am    1  UNL1       -0.3007
     23 H         140.4568  142.6220  164.4285 H       1  UNL1        0.1497
     24 C         140.3159  144.6822  163.7715 C.3     1  UNL1        0.0911
     25 C         138.8455  144.8684  164.0025 C.3     1  UNL1        0.0386
     26 C         138.0664  143.8284  164.7515 C.3     1  UNL1        0.0738
     27 N         138.0552  142.4079  164.2696 N.3     1  UNL1       -0.2726
     28 C         138.5049  141.2085  165.0501 C.3     1  UNL1        0.0721
     29 C         138.3200  139.9968  164.1854 C.3     1  UNL1        0.0188
     30 C         137.7562  140.4474  162.8704 C.3     1  UNL1        0.0188
     31 C         137.5925  141.9375  162.9225 C.3     1  UNL1        0.0721
@<TRIPOS>BOND
     1    20    21    2
     2    21    22   am
     3    22    24    1
     4    24    25    1
     5    25    26    1
     6    26    27    1
     7    27    28    1
     8    28    29    1
     9    29    30    1
    10    30    31    1
    11    21     1    1
    12     1     2   ar
    13     2     3   ar
    14     3     4   ar
    15     4     5   ar
    16     5     6   ar
    17     6     7    2
    18     6     8   ar
    19     8     9   ar
    20     9    10   ar
    21    10    11   ar
    22    11    12   ar
    23    12    13   ar
    24    13    14   ar
    25    14    15   ar
    26    15    16   ar
    27    16    17   ar
    28    17    18   ar
    29    18    19   ar
    30    31    27    1
    31    19     1   ar
    32    19     5   ar
    33    17     8   ar
    34    16    11   ar
    35    22    23    1
@<TRIPOS>MOLECULE
*****
 31 35 0 0 0
SMALL
GASTEIGER

@<TRIPOS>ATOM
      1 C         141.7264  141.7582  168.4317 C.ar    1  UNL1        0.0878
      2 C         141.2735  142.0780  169.8256 C.ar    1  UNL1        0.0091
      3 C         140.0271  141.4477  170.3724 C.ar    1  UNL1        0.0194
      4 C         139.2334  140.4975  169.5254 C.ar    1  UNL1        0.0844
      5 N         139.6862  140.1777  168.1317 N.ar    1  UNL1       -0.2576
      6 C         138.8926  139.2276  167.2847 C.ar    1  UNL1        0.2672
      7 O         137.6462  138.5972  167.8315 O.2     1  UNL1       -0.2665
      8 C         139.3455  138.9078  165.8908 C.ar    1  UNL1        0.0742
      9 C         138.5518  137.9576  165.0439 C.ar    1  UNL1        0.0063
     10 C         139.0046  137.6378  163.6501 C.ar    1  UNL1        0.0003
     11 C         140.2511  138.2681  163.1032 C.ar    1  UNL1        0.0015
     12 C         140.7039  137.9483  161.7095 C.ar    1  UNL1        0.0000
     13 C         141.9503  138.5787  161.1626 C.ar    1  UNL1        0.0000
     14 C         142.7440  139.5288  162.0096 C.ar    1  UNL1        0.0000
     15 C         142.2912  139.8486  163.4034 C.ar    1  UNL1        0.0015
     16 C         141.0447  139.2183  163.9502 C.ar    1  UNL1        0.0179
     17 C         140.5919  139.5381  165.3440 C.ar    1  UNL1        0.0875
     18 N         141.3855  140.4882  166.1910 N.ar    1  UNL1       -0.2276
     19 C         140.9327  140.8081  167.5848 C.ar    1  UNL1        0.1543
     20 O         144.0854  142.7781  168.8126 O.2     1  UNL1       -0.2700
     21 C         142.9728  142.3886  167.8849 C.2     1  UNL1        0.2488
     22 N         143.1067  142.6294  166.4105 N.am    1  UNL1       -0.3007
     23 H         142.3765  142.3738  165.8016 H       1  UNL1        0.1497
     24 C         144.3532  143.2598  165.8637 C.3     1  UNL1        0.0911
     25 C         144.3335  143.9117  164.5129 C.3     1  UNL1        0.0386
     26 C         143.1245  144.6803  164.0686 C.3     1  UNL1        0.0738
     27 N         141.8783  143.9499  163.6641 N.3     1  UNL1       -0.2726
     28 C         141.6480  143.2581  162.3532 C.3     1  UNL1        0.0721
     29 C         140.2710  142.6638  162.3784 C.3     1  UNL1        0.0188
     30 C         139.6503  142.9883  163.7049 C.3     1  UNL1        0.0188
     31 C         140.6437  143.7832  164.4994 C.3     1  UNL1        0.0721
@<TRIPOS>BOND
     1    20    21    2
     2    21    22   am
     3    22    24    1
     4    24    25    1
     5    25    26    1
     6    26    27    1
     7    27    28    1
     8    28    29    1
     9    29    30    1
    10    30    31    1
    11    21     1    1
    12     1     2   ar
    13     2     3   ar
    14     3     4   ar
    15     4     5   ar
    16     5     6   ar
    17     6     7    2
    18     6     8   ar
    19     8     9   ar
    20     9    10   ar
    21    10    11   ar
    22    11    12   ar
    23    12    13   ar
    24    13    14   ar
    25    14    15   ar
    26    15    16   ar
    27    16    17   ar
    28    17    18   ar
    29    18    19   ar
    30    31    27    1
    31    19     1   ar
    32    19     5   ar
    33    17     8   ar
    34    16    11   ar
    35    22    23    1
@<TRIPOS>MOLECULE
*****
 31 35 0 0 0
SMALL
GASTEIGER

@<TRIPOS>ATOM
      1 C         141.6934  138.9204  163.7587 C.ar    1  UNL1        0.0878
      2 C         141.0410  138.1131  162.6756 C.ar    1  UNL1        0.0091
      3 C         139.6492  137.5876  162.8668 C.ar    1  UNL1        0.0194
      4 C         138.9096  137.8693  164.1411 C.ar    1  UNL1        0.0844
      5 N         139.5618  138.6765  165.2241 N.ar    1  UNL1       -0.2576
      6 C         138.8222  138.9582  166.4983 C.ar    1  UNL1        0.2672
      7 O         137.4304  138.4327  166.6895 O.2     1  UNL1       -0.2665
      8 C         139.4746  139.7655  167.5814 C.ar    1  UNL1        0.0742
      9 C         138.7350  140.0472  168.8556 C.ar    1  UNL1        0.0063
     10 C         139.3872  140.8544  169.9386 C.ar    1  UNL1        0.0003
     11 C         140.7791  141.3799  169.7474 C.ar    1  UNL1        0.0015
     12 C         141.4313  142.1871  170.8304 C.ar    1  UNL1        0.0000
     13 C         142.8231  142.7126  170.6392 C.ar    1  UNL1        0.0000
     14 C         143.5627  142.4309  169.3650 C.ar    1  UNL1        0.0000
     15 C         142.9105  141.6237  168.2820 C.ar    1  UNL1        0.0015
     16 C         141.5187  141.0982  168.4732 C.ar    1  UNL1        0.0179
     17 C         140.8664  140.2910  167.3902 C.ar    1  UNL1        0.0875
     18 N         141.6060  140.0093  166.1159 N.ar    1  UNL1       -0.2276
     19 C         140.9538  139.2021  165.0329 C.ar    1  UNL1        0.1543
     20 O         144.1294  138.5854  162.9200 O.2     1  UNL1       -0.2700
     21 C         143.0852  139.4459  163.5675 C.2     1  UNL1        0.2488
     22 N         143.4329  140.8319  164.0238 N.am    1  UNL1       -0.3007
     23 H         142.7475  141.3966  164.4487 H       1  UNL1        0.1497
     24 C         144.8248  141.3574  163.8325 C.3     1  UNL1        0.0911
     25 C         145.2066  142.0166  162.5404 C.3     1  UNL1        0.0386
     26 C         144.1604  142.6953  161.7069 C.3     1  UNL1        0.0738
     27 N         143.0826  141.8849  161.0501 N.3     1  UNL1       -0.2726
     28 C         143.2930  140.7362  160.1086 C.3     1  UNL1        0.0721
     29 C         141.9455  140.2222  159.6961 C.3     1  UNL1        0.0188
     30 C         140.9024  141.0531  160.3826 C.3     1  UNL1        0.0188
     31 C         141.6051  142.0807  161.2194 C.3     1  UNL1        0.0721
@<TRIPOS>BOND
     1    20    21    2
     2    21    22   am
     3    22    24    1
     4    24    25    1
     5    25    26    1
     6    26    27    1
     7    27    28    1
     8    28    29    1
     9    29    30    1
    10    30    31    1
    11    21     1    1
    12     1     2   ar
    13     2     3   ar
    14     3     4   ar
    15     4     5   ar
    16     5     6   ar
    17     6     7    2
    18     6     8   ar
    19     8     9   ar
    20     9    10   ar
    21    10    11   ar
    22    11    12   ar
    23    12    13   ar
    24    13    14   ar
    25    14    15   ar
    26    15    16   ar
    27    16    17   ar
    28    17    18   ar
    29    18    19   ar
    30    31    27    1
    31    19     1   ar
    32    19     5   ar
    33    17     8   ar
    34    16    11   ar
    35    22    23    1
@<TRIPOS>MOLECULE
*****
 31 35 0 0 0
SMALL
GASTEIGER

@<TRIPOS>ATOM
      1 C         143.0347  142.0259  166.8711 C.ar    1  UNL1        0.0878
      2 C         143.1191  142.4623  168.3038 C.ar    1  UNL1        0.0091
      3 C         142.0951  141.9904  169.2930 C.ar    1  UNL1        0.0194
      4 C         140.9866  141.0823  168.8497 C.ar    1  UNL1        0.0844
      5 N         140.9022  140.6459  167.4171 N.ar    1  UNL1       -0.2576
      6 C         139.7937  139.7377  166.9738 C.ar    1  UNL1        0.2672
      7 O         138.7697  139.2659  167.9630 O.2     1  UNL1       -0.2665
      8 C         139.7093  139.3014  165.5411 C.ar    1  UNL1        0.0742
      9 C         138.6009  138.3932  165.0977 C.ar    1  UNL1        0.0063
     10 C         138.5165  137.9568  163.6651 C.ar    1  UNL1        0.0003
     11 C         139.5405  138.4286  162.6758 C.ar    1  UNL1        0.0015
     12 C         139.4561  137.9923  161.2432 C.ar    1  UNL1        0.0000
     13 C         140.4801  138.4641  160.2539 C.ar    1  UNL1        0.0000
     14 C         141.5886  139.3723  160.6972 C.ar    1  UNL1        0.0000
     15 C         141.6730  139.8086  162.1298 C.ar    1  UNL1        0.0015
     16 C         140.6490  139.3368  163.1191 C.ar    1  UNL1        0.0179
     17 C         140.7334  139.7732  164.5518 C.ar    1  UNL1        0.0875
     18 N         141.8418  140.6814  164.9951 N.ar    1  UNL1       -0.2276
     19 C         141.9262  141.1177  166.4277 C.ar    1  UNL1        0.1543
     20 O         144.6931  143.8472  166.0449 O.2     1  UNL1       -0.2700
     21 C         144.0587  142.4977  165.8818 C.2     1  UNL1        0.2488
     22 N         144.4484  141.6201  164.7294 N.am    1  UNL1       -0.3007
     23 H         144.0320  140.7345  164.6224 H       1  UNL1        0.1497
     24 C         145.4725  142.0920  163.7401 C.3     1  UNL1        0.0911
     25 C         145.1754  142.0402  162.2707 C.3     1  UNL1        0.0386
     26 C         143.8811  142.5886  161.7474 C.3     1  UNL1        0.0738
     27 N         143.0909  143.5614  162.5716 N.3     1  UNL1       -0.2726
     28 C         143.5693  144.8970  163.0587 C.3     1  UNL1        0.0721
     29 C         142.4576  145.5304  163.8416 C.3     1  UNL1        0.0188
     30 C         141.2920  144.5863  163.8383 C.3     1  UNL1        0.0188
     31 C         141.6834  143.3694  163.0534 C.3     1  UNL1        0.0721
@<TRIPOS>BOND
     1    20    21    2
     2    21    22   am
     3    22    24    1
     4    24    25    1
     5    25    26    1
     6    26    27    1
     7    27    28    1
     8    28    29    1
     9    29    30    1
    10    30    31    1
    11    21     1    1
    12     1     2   ar
    13     2     3   ar
    14     3     4   ar
    15     4     5   ar
    16     5     6   ar
    17     6     7    2
    18     6     8   ar
    19     8     9   ar
    20     9    10   ar
    21    10    11   ar
    22    11    12   ar
    23    12    13   ar
    24    13    14   ar
    25    14    15   ar
    26    15    16   ar
    27    16    17   ar
    28    17    18   ar
    29    18    19   ar
    30    31    27    1
    31    19     1   ar
    32    19     5   ar
    33    17     8   ar
    34    16    11   ar
    35    22    23    1
@<TRIPOS>MOLECULE
*****
 31 35 0 0 0
SMALL
GASTEIGER

@<TRIPOS>ATOM
      1 C         142.6105  140.2603  162.4442 C.ar    1  UNL1        0.0878
      2 C         142.7356  139.7444  161.0412 C.ar    1  UNL1        0.0091
      3 C         141.7601  138.7282  160.5260 C.ar    1  UNL1        0.0194
      4 C         140.6594  138.2278  161.4137 C.ar    1  UNL1        0.0844
      5 N         140.5342  138.7436  162.8166 N.ar    1  UNL1       -0.2576
      6 C         139.4335  138.2432  163.7043 C.ar    1  UNL1        0.2672
      7 O         138.4579  137.2269  163.1891 O.2     1  UNL1       -0.2665
      8 C         139.3084  138.7590  165.1073 C.ar    1  UNL1        0.0742
      9 C         138.2077  138.2586  165.9951 C.ar    1  UNL1        0.0063
     10 C         138.0826  138.7745  167.3980 C.ar    1  UNL1        0.0003
     11 C         139.0582  139.7907  167.9132 C.ar    1  UNL1        0.0015
     12 C         138.9330  140.3066  169.3162 C.ar    1  UNL1        0.0000
     13 C         139.9086  141.3228  169.8314 C.ar    1  UNL1        0.0000
     14 C         141.0093  141.8232  168.9437 C.ar    1  UNL1        0.0000
     15 C         141.1345  141.3074  167.5407 C.ar    1  UNL1        0.0015
     16 C         140.1589  140.2911  167.0255 C.ar    1  UNL1        0.0179
     17 C         140.2840  139.7753  165.6225 C.ar    1  UNL1        0.0875
     18 N         141.3847  140.2757  164.7348 N.ar    1  UNL1       -0.2276
     19 C         141.5098  139.7599  163.3319 C.ar    1  UNL1        0.1543
     20 O         144.9582  141.3700  162.3605 O.2     1  UNL1       -0.2700
     21 C         143.5861  141.2765  162.9594 C.2     1  UNL1        0.2488
     22 N         143.1897  142.1993  164.0736 N.am    1  UNL1       -0.3007
     23 H         142.2891  142.1379  164.4667 H       1  UNL1        0.1497
     24 C         144.1653  143.2155  164.5888 C.3     1  UNL1        0.0911
     25 C         143.9639  144.6704  164.2841 C.3     1  UNL1        0.0386
     26 C         143.1721  145.0815  163.0783 C.3     1  UNL1        0.0738
     27 N         141.6729  145.0759  163.1279 N.3     1  UNL1       -0.2726
     28 C         140.8314  144.7287  164.3201 C.3     1  UNL1        0.0721
     29 C         139.3904  144.8547  163.9230 C.3     1  UNL1        0.0188
     30 C         139.3413  145.2797  162.4853 C.3     1  UNL1        0.0188
     31 C         140.7519  145.4164  161.9939 C.3     1  UNL1        0.0721
@<TRIPOS>BOND
     1    20    21    2
     2    21    22   am
     3    22    24    1
     4    24    25    1
     5    25    26    1
     6    26    27    1
     7    27    28    1
     8    28    29    1
     9    29    30    1
    10    30    31    1
    11    21     1    1
    12     1     2   ar
    13     2     3   ar
    14     3     4   ar
    15     4     5   ar
    16     5     6   ar
    17     6     7    2
    18     6     8   ar
    19     8     9   ar
    20     9    10   ar
    21    10    11   ar
    22    11    12   ar
    23    12    13   ar
    24    13    14   ar
    25    14    15   ar
    26    15    16   ar
    27    16    17   ar
    28    17    18   ar
    29    18    19   ar
    30    31    27    1
    31    19     1   ar
    32    19     5   ar
    33    17     8   ar
    34    16    11   ar
    35    22    23    1
@<TRIPOS>MOLECULE
*****
 31 35 0 0 0
SMALL
GASTEIGER

@<TRIPOS>ATOM
      1 C         142.2094  141.3194  161.3643 C.ar    1  UNL1        0.0878
      2 C         143.2343  141.9640  160.4787 C.ar    1  UNL1        0.0091
      3 C         144.3025  142.8313  161.0759 C.ar    1  UNL1        0.0194
      4 C         144.3459  143.0540  162.5586 C.ar    1  UNL1        0.0844
      5 N         143.3211  142.4095  163.4442 N.ar    1  UNL1       -0.2576
      6 C         143.3645  142.6323  164.9269 C.ar    1  UNL1        0.2672
      7 O         144.4328  143.4996  165.5241 O.2     1  UNL1       -0.2665
      8 C         142.3397  141.9877  165.8125 C.ar    1  UNL1        0.0742
      9 C         142.3831  142.2105  167.2953 C.ar    1  UNL1        0.0063
     10 C         141.3583  141.5659  168.1808 C.ar    1  UNL1        0.0003
     11 C         140.2900  140.6986  167.5837 C.ar    1  UNL1        0.0015
     12 C         139.2652  140.0541  168.4693 C.ar    1  UNL1        0.0000
     13 C         138.1969  139.1868  167.8721 C.ar    1  UNL1        0.0000
     14 C         138.1535  138.9640  166.3894 C.ar    1  UNL1        0.0000
     15 C         139.1783  139.6085  165.5038 C.ar    1  UNL1        0.0015
     16 C         140.2466  140.4758  166.1010 C.ar    1  UNL1        0.0179
     17 C         141.2714  141.1204  165.2154 C.ar    1  UNL1        0.0875
     18 N         141.2280  140.8976  163.7326 N.ar    1  UNL1       -0.2276
     19 C         142.2528  141.5422  162.8471 C.ar    1  UNL1        0.1543
     20 O         140.6164  140.7472  159.3933 O.2     1  UNL1       -0.2700
     21 C         141.1412  140.4521  160.7672 C.2     1  UNL1        0.2488
     22 N         140.5976  139.2896  161.5439 N.am    1  UNL1       -0.3007
     23 H         140.9420  139.0959  162.4456 H       1  UNL1        0.1497
     24 C         139.5294  138.4223  160.9467 C.3     1  UNL1        0.0911
     25 C         138.0862  138.6899  161.2558 C.3     1  UNL1        0.0386
     26 C         137.4621  139.9932  160.8534 C.3     1  UNL1        0.0738
     27 N         137.6510  141.2109  161.7086 N.3     1  UNL1       -0.2726
     28 C         137.3461  141.3155  163.1735 C.3     1  UNL1        0.0721
     29 C         137.6846  142.7071  163.6193 C.3     1  UNL1        0.0188
     30 C         138.1987  143.4627  162.4299 C.3     1  UNL1        0.0188
     31 C         138.1779  142.5380  161.2490 C.3     1  UNL1        0.0721
@<TRIPOS>BOND
     1    20    21    2
     2    21    22   am
     3    22    24    1
     4    24    25    1
     5    25    26    1
     6    26    27    1
     7    27    28    1
     8    28    29    1
     9    29    30    1
    10    30    31    1
    11    21     1    1
    12     1     2   ar
    13     2     3   ar
    14     3     4   ar
    15     4     5   ar
    16     5     6   ar
    17     6     7    2
    18     6     8   ar
    19     8     9   ar
    20     9    10   ar
    21    10    11   ar
    22    11    12   ar
    23    12    13   ar
    24    13    14   ar
    25    14    15   ar
    26    15    16   ar
    27    16    17   ar
    28    17    18   ar
    29    18    19   ar
    30    31    27    1
    31    19     1   ar
    32    19     5   ar
    33    17     8   ar
    34    16    11   ar
    35    22    23    1
