@<TRIPOS>MOLECULE
*****
 35 40 0 0 0
SMALL
GASTEIGER

@<TRIPOS>ATOM
      1 C         143.8162  140.9943  162.3438 C.ar    1  UNL1        0.0251
      2 C         144.1002  140.5182  163.7377 C.ar    1  UNL1        0.0233
      3 C         143.1251  141.1843  164.6626 C.ar    1  UNL1        0.0918
      4 N         142.9300  141.0972  166.1473 N.ar    1  UNL1       -0.2262
      5 C         141.8482  141.8978  166.8098 C.ar    1  UNL1        0.1604
      6 N         140.9617  142.7854  165.9877 N.ar    1  UNL1       -0.2117
      7 C         141.1568  142.8726  164.5030 C.ar    1  UNL1        0.1409
      8 C         142.2385  142.0720  163.8404 C.ar    1  UNL1        0.0785
      9 S         142.6656  141.9545  162.4073 S.2     1  UNL1       -0.0856
     10 C         141.6531  141.8107  168.2946 C.2     1  UNL1        0.0247
     11 C         142.5960  142.5235  169.2180 C.2     1  UNL1       -0.0005
     12 C         142.4009  142.4364  170.7027 C.2     1  UNL1        0.0011
     13 C         141.2628  141.6364  171.2639 C.2     1  UNL1        0.0172
     14 C         140.3199  140.9236  170.3405 C.2     1  UNL1        0.0900
     15 N         139.1170  140.0660  170.6004 N.2     1  UNL1       -0.1519
     16 N         138.5687  139.6231  169.2764 N.2     1  UNL1       -0.1507
     17 C         139.4327  140.2070  168.1981 C.2     1  UNL1        0.1058
     18 C         140.5151  141.0107  168.8558 C.3     1  UNL1        0.1103
     19 N         140.2701  143.7602  163.6808 N.pl3   1  UNL1       -0.2876
     20 C         140.8466  144.9554  162.9812 C.3     1  UNL1        0.1243
     21 C         139.9601  145.8431  162.1591 C.3     1  UNL1        0.1636
     22 O         138.4970  145.5357  162.0365 O.3     1  UNL1       -0.3501
     23 C         137.9205  144.3406  162.7361 C.3     1  UNL1        0.1636
     24 C         138.8071  143.4528  163.5583 C.3     1  UNL1        0.1243
     25 C         144.5534  140.5824  161.1041 C.3     1  UNL1        0.1058
     26 N         142.4958  138.0617  157.9956 N.3     1  UNL1       -0.1565
     27 C         142.8901  139.4731  157.6758 C.3     1  UNL1        0.1128
     28 C         143.5760  140.3133  158.7120 C.3     1  UNL1        0.0918
     29 N         143.8675  139.7421  160.0680 N.3     1  UNL1       -0.2660
     30 C         143.4732  138.3306  160.3878 C.3     1  UNL1        0.0918
     31 C         142.7873  137.4904  159.3516 C.3     1  UNL1        0.1128
     32 C         141.1240  136.3812  155.9234 C.3     1  UNL1        0.1960
     33 S         141.8099  137.2214  156.9595 S.O2    1  UNL1        0.0457
     34 O         143.0850  136.4661  156.7280 O.2     1  UNL1       -0.1572
     35 O         140.5348  137.9767  157.1911 O.2     1  UNL1       -0.1572
@<TRIPOS>BOND
     1    32    33    1
     2    33    34    2
     3    33    35    2
     4    33    26    1
     5    26    27    1
     6    27    28    1
     7    28    29    1
     8    29    25    1
     9    25     1    1
    10     1     2   ar
    11     2     3   ar
    12     3     4   ar
    13     4     5   ar
    14     5    10    1
    15    10    11    2
    16    11    12    1
    17    12    13    2
    18    13    14    1
    19    14    15    2
    20    15    16    1
    21    16    17    2
    22    17    18    1
    23     5     6   ar
    24     6     7   ar
    25     7    19    1
    26    19    20    1
    27    20    21    1
    28    21    22    1
    29    22    23    1
    30    23    24    1
    31     7     8   ar
    32     8     9   ar
    33    29    30    1
    34    30    31    1
    35    31    26    1
    36     9     1   ar
    37     8     3   ar
    38    18    10    1
    39    24    19    1
    40    18    14    1
@<TRIPOS>MOLECULE
*****
 35 40 0 0 0
SMALL
GASTEIGER

@<TRIPOS>ATOM
      1 C         143.8284  141.0495  162.3405 C.ar    1  UNL1        0.0251
      2 C         144.1124  140.5663  163.7318 C.ar    1  UNL1        0.0233
      3 C         143.1370  141.2272  164.6601 C.ar    1  UNL1        0.0918
      4 N         142.9418  141.1322  166.1443 N.ar    1  UNL1       -0.2262
      5 C         141.8597  141.9290  166.8109 C.ar    1  UNL1        0.1604
      6 N         140.9730  142.8207  165.9933 N.ar    1  UNL1       -0.2117
      7 C         141.1682  142.9157  164.5092 C.ar    1  UNL1        0.1409
      8 C         142.2502  142.1189  163.8425 C.ar    1  UNL1        0.0785
      9 S         142.6776  142.0091  162.4089 S.2     1  UNL1       -0.0856
     10 C         141.6644  141.8340  168.2952 C.2     1  UNL1        0.0247
     11 C         142.6032  142.5475  169.2223 C.2     1  UNL1       -0.0005
     12 C         142.4080  142.4525  170.7065 C.2     1  UNL1        0.0011
     13 C         141.2739  141.6440  171.2635 C.2     1  UNL1        0.0172
     14 C         140.3351  140.9305  170.3364 C.2     1  UNL1        0.0900
     15 N         139.1366  140.0655  170.5918 N.2     1  UNL1       -0.1519
     16 N         138.5911  139.6258  169.2655 N.2     1  UNL1       -0.1507
     17 C         139.4525  140.2192  168.1904 C.2     1  UNL1        0.1058
     18 C         140.5304  141.0255  168.8522 C.3     1  UNL1        0.1103
     19 N         140.2814  143.8074  163.6916 N.pl3   1  UNL1       -0.2876
     20 C         138.8151  143.5104  163.5820 C.3     1  UNL1        0.1243
     21 C         137.9284  144.4021  162.7645 C.3     1  UNL1        0.1636
     22 O         138.5077  145.5908  162.0565 O.3     1  UNL1       -0.3501
     23 C         139.9739  145.8878  162.1661 C.3     1  UNL1        0.1636
     24 C         140.8608  144.9961  162.9836 C.3     1  UNL1        0.1243
     25 C         144.5659  140.6444  161.0987 C.3     1  UNL1        0.1058
     26 N         142.5035  138.1548  157.9683 N.3     1  UNL1       -0.1565
     27 C         142.6008  137.6555  159.3794 C.3     1  UNL1        0.1128
     28 C         143.2883  138.4855  160.4229 C.3     1  UNL1        0.0918
     29 N         143.8784  139.8146  160.0552 N.3     1  UNL1       -0.2660
     30 C         143.7811  140.3138  158.6440 C.3     1  UNL1        0.0918
     31 C         143.0936  139.4840  157.6007 C.3     1  UNL1        0.1128
     32 C         141.1285  136.4953  155.8815 C.3     1  UNL1        0.1960
     33 S         141.8160  137.3250  156.9249 S.O2    1  UNL1        0.0457
     34 O         143.1477  136.9529  156.3435 O.2     1  UNL1       -0.1572
     35 O         140.4843  137.6972  157.5063 O.2     1  UNL1       -0.1572
@<TRIPOS>BOND
     1    32    33    1
     2    33    34    2
     3    33    35    2
     4    33    26    1
     5    26    27    1
     6    27    28    1
     7    28    29    1
     8    29    25    1
     9    25     1    1
    10     1     2   ar
    11     2     3   ar
    12     3     4   ar
    13     4     5   ar
    14     5    10    1
    15    10    11    2
    16    11    12    1
    17    12    13    2
    18    13    14    1
    19    14    15    2
    20    15    16    1
    21    16    17    2
    22    17    18    1
    23     5     6   ar
    24     6     7   ar
    25     7    19    1
    26    19    20    1
    27    20    21    1
    28    21    22    1
    29    22    23    1
    30    23    24    1
    31     7     8   ar
    32     8     9   ar
    33    29    30    1
    34    30    31    1
    35    31    26    1
    36     9     1   ar
    37     8     3   ar
    38    18    10    1
    39    24    19    1
    40    18    14    1
@<TRIPOS>MOLECULE
*****
 35 40 0 0 0
SMALL
GASTEIGER

@<TRIPOS>ATOM
      1 C         141.5797  139.0883  162.2064 C.ar    1  UNL1        0.0251
      2 C         142.1104  138.7285  163.5625 C.ar    1  UNL1        0.0233
      3 C         141.8028  139.8615  164.4961 C.ar    1  UNL1        0.0918
      4 N         142.0859  140.0649  165.9550 N.ar    1  UNL1       -0.2262
      5 C         141.6483  141.3284  166.6349 C.ar    1  UNL1        0.1604
      6 N         140.9276  142.3884  165.8559 N.ar    1  UNL1       -0.2117
      7 C         140.6445  142.1850  164.3970 C.ar    1  UNL1        0.1409
      8 C         141.0821  140.9216  163.7171 C.ar    1  UNL1        0.0785
      9 S         140.9442  140.4437  162.3019 S.2     1  UNL1       -0.0856
     10 C         141.9314  141.5318  168.0939 C.2     1  UNL1        0.0247
     11 C         143.1674  142.2654  168.5229 C.2     1  UNL1       -0.0005
     12 C         143.4504  142.4688  169.9818 C.2     1  UNL1        0.0011
     13 C         142.4975  141.9385  171.0118 C.2     1  UNL1        0.0172
     14 C         141.2615  141.2049  170.5828 C.2     1  UNL1        0.0900
     15 N         140.1471  140.5737  171.3636 N.2     1  UNL1       -0.1519
     16 N         139.1753  139.9802  170.3873 N.2     1  UNL1       -0.1507
     17 C         139.6891  140.2446  169.0030 C.2     1  UNL1        0.1058
     18 C         140.9785  141.0015  169.1238 C.3     1  UNL1        0.1103
     19 N         139.9238  143.2450  163.6179 N.pl3   1  UNL1       -0.2876
     20 C         140.7019  144.2484  162.8191 C.3     1  UNL1        0.1243
     21 C         139.9813  145.3084  162.0402 C.3     1  UNL1        0.1636
     22 O         138.4824  145.3652  162.0598 O.3     1  UNL1       -0.3501
     23 C         137.7044  144.3619  162.8586 C.3     1  UNL1        0.1636
     24 C         138.4250  143.3018  163.6376 C.3     1  UNL1        0.1243
     25 C         141.6689  138.2415  160.9715 C.3     1  UNL1        0.1058
     26 N         143.9427  139.7272  157.3836 N.3     1  UNL1       -0.1565
     27 C         143.0249  138.5478  157.2543 C.3     1  UNL1        0.1128
     28 C         142.2670  138.0526  158.4503 C.3     1  UNL1        0.0918
     29 N         142.4268  138.7367  159.7756 N.3     1  UNL1       -0.2660
     30 C         143.3447  139.9161  159.9049 C.3     1  UNL1        0.0918
     31 C         144.1025  140.4113  158.7089 C.3     1  UNL1        0.1128
     32 C         145.4585  140.7176  154.9918 C.3     1  UNL1        0.1960
     33 S         144.7006  140.2224  156.1877 S.O2    1  UNL1        0.0457
     34 O         144.3714  141.6365  156.5647 O.2     1  UNL1       -0.1572
     35 O         145.0298  138.8084  155.8107 O.2     1  UNL1       -0.1572
@<TRIPOS>BOND
     1    32    33    1
     2    33    34    2
     3    33    35    2
     4    33    26    1
     5    26    27    1
     6    27    28    1
     7    28    29    1
     8    29    25    1
     9    25     1    1
    10     1     2   ar
    11     2     3   ar
    12     3     4   ar
    13     4     5   ar
    14     5    10    1
    15    10    11    2
    16    11    12    1
    17    12    13    2
    18    13    14    1
    19    14    15    2
    20    15    16    1
    21    16    17    2
    22    17    18    1
    23     5     6   ar
    24     6     7   ar
    25     7    19    1
    26    19    20    1
    27    20    21    1
    28    21    22    1
    29    22    23    1
    30    23    24    1
    31     7     8   ar
    32     8     9   ar
    33    29    30    1
    34    30    31    1
    35    31    26    1
    36     9     1   ar
    37     8     3   ar
    38    18    10    1
    39    24    19    1
    40    18    14    1
@<TRIPOS>MOLECULE
*****
 35 40 0 0 0
SMALL
GASTEIGER

@<TRIPOS>ATOM
      1 C         138.6394  140.6978  162.7950 C.ar    1  UNL1        0.0251
      2 C         138.4395  140.1273  164.1678 C.ar    1  UNL1        0.0233
      3 C         139.5961  140.5567  165.0210 C.ar    1  UNL1        0.0918
      4 N         139.9345  140.2946  166.4586 N.ar    1  UNL1       -0.2262
      5 C         141.1876  140.8683  167.0507 C.ar    1  UNL1        0.1604
      6 N         142.1022  141.7041  166.2053 N.ar    1  UNL1       -0.2117
      7 C         141.7638  141.9663  164.7677 C.ar    1  UNL1        0.1409
      8 C         140.5107  141.3926  164.1756 C.ar    1  UNL1        0.0785
      9 S         139.9194  141.4798  162.7998 S.2     1  UNL1       -0.0856
     10 C         141.5261  140.6062  168.4884 C.2     1  UNL1        0.0247
     11 C         142.4590  139.4878  168.8474 C.2     1  UNL1       -0.0005
     12 C         142.7974  139.2257  170.2851 C.2     1  UNL1        0.0011
     13 C         142.2029  140.0820  171.3637 C.2     1  UNL1        0.0172
     14 C         141.2700  141.2004  171.0047 C.2     1  UNL1        0.0900
     15 N         140.5359  142.2036  171.8441 N.2     1  UNL1       -0.1519
     16 N         139.7438  143.0858  170.9253 N.2     1  UNL1       -0.1507
     17 C         139.9883  142.6277  169.5180 C.2     1  UNL1        0.1058
     18 C         140.9316  141.4625  169.5671 C.3     1  UNL1        0.1103
     19 N         142.6784  142.8021  163.9223 N.pl3   1  UNL1       -0.2876
     20 C         143.5884  142.1454  162.9268 C.3     1  UNL1        0.1243
     21 C         144.5030  142.9812  162.0814 C.3     1  UNL1        0.1636
     22 O         144.5078  144.4737  162.2313 O.3     1  UNL1       -0.3501
     23 C         143.5979  145.1304  163.2267 C.3     1  UNL1        0.1636
     24 C         142.6832  144.2946  164.0722 C.3     1  UNL1        0.1243
     25 C         137.7205  140.5179  161.6231 C.3     1  UNL1        0.1058
     26 N         139.3535  139.0822  157.6832 N.3     1  UNL1       -0.1565
     27 C         139.6712  138.3343  158.9441 C.3     1  UNL1        0.1128
     28 C         139.1269  138.8130  160.2574 C.3     1  UNL1        0.0918
     29 N         138.2648  140.0394  160.3098 N.3     1  UNL1       -0.2660
     30 C         137.9471  140.7872  159.0489 C.3     1  UNL1        0.0918
     31 C         138.4914  140.3086  157.7357 C.3     1  UNL1        0.1128
     32 C         140.4421  138.1252  155.0567 C.3     1  UNL1        0.1960
     33 S         139.8977  138.6036  156.3699 S.O2    1  UNL1        0.0457
     34 O         139.0339  137.3805  156.4576 O.2     1  UNL1       -0.1572
     35 O         140.7615  139.8268  156.2822 O.2     1  UNL1       -0.1572
@<TRIPOS>BOND
     1    32    33    1
     2    33    34    2
     3    33    35    2
     4    33    26    1
     5    26    27    1
     6    27    28    1
     7    28    29    1
     8    29    25    1
     9    25     1    1
    10     1     2   ar
    11     2     3   ar
    12     3     4   ar
    13     4     5   ar
    14     5    10    1
    15    10    11    2
    16    11    12    1
    17    12    13    2
    18    13    14    1
    19    14    15    2
    20    15    16    1
    21    16    17    2
    22    17    18    1
    23     5     6   ar
    24     6     7   ar
    25     7    19    1
    26    19    20    1
    27    20    21    1
    28    21    22    1
    29    22    23    1
    30    23    24    1
    31     7     8   ar
    32     8     9   ar
    33    29    30    1
    34    30    31    1
    35    31    26    1
    36     9     1   ar
    37     8     3   ar
    38    18    10    1
    39    24    19    1
    40    18    14    1
@<TRIPOS>MOLECULE
*****
 35 40 0 0 0
SMALL
GASTEIGER

@<TRIPOS>ATOM
      1 C         143.0469  142.9182  162.3625 C.ar    1  UNL1        0.0251
      2 C         143.5527  143.1068  163.7620 C.ar    1  UNL1        0.0233
      3 C         142.7205  142.2551  164.6742 C.ar    1  UNL1        0.0918
      4 N         142.7598  142.0382  166.1579 N.ar    1  UNL1       -0.2262
      5 C         141.7790  141.1064  166.8058 C.ar    1  UNL1        0.1604
      6 N         140.7590  140.3916  165.9701 N.ar    1  UNL1       -0.2117
      7 C         140.7197  140.6084  164.4864 C.ar    1  UNL1        0.1409
      8 C         141.7004  141.5402  163.8385 C.ar    1  UNL1        0.0785
      9 S         141.9022  141.9501  162.4097 S.2     1  UNL1       -0.0856
     10 C         141.8183  140.8895  168.2896 C.2     1  UNL1        0.0247
     11 C         142.5275  139.6945  168.8544 C.2     1  UNL1       -0.0005
     12 C         142.5668  139.4776  170.3381 C.2     1  UNL1        0.0011
     13 C         141.8968  140.4557  171.2570 C.2     1  UNL1        0.0172
     14 C         141.1876  141.6507  170.6923 C.2     1  UNL1        0.0900
     15 N         140.4424  142.7769  171.3453 N.2     1  UNL1       -0.1519
     16 N         139.9426  143.6898  170.2652 N.2     1  UNL1       -0.1507
     17 C         140.3789  143.1278  168.9446 C.2     1  UNL1        0.1058
     18 C         141.1483  141.8676  169.2086 C.3     1  UNL1        0.1103
     19 N         139.6996  139.8936  163.6507 N.pl3   1  UNL1       -0.2876
     20 C         138.6589  140.6759  162.9055 C.3     1  UNL1        0.1243
     21 C         137.6389  139.9610  162.0699 C.3     1  UNL1        0.1636
     22 O         137.6594  138.4639  161.9792 O.3     1  UNL1       -0.3501
     23 C         138.7000  137.6816  162.7244 C.3     1  UNL1        0.1636
     24 C         139.7201  138.3964  163.5602 C.3     1  UNL1        0.1243
     25 C         143.5905  143.5814  161.1317 C.3     1  UNL1        0.1058
     26 N         140.8024  144.8095  157.8198 N.3     1  UNL1       -0.1565
     27 C         142.0026  143.9631  157.5146 C.3     1  UNL1        0.1128
     28 C         142.9319  143.5538  158.6187 C.3     1  UNL1        0.0918
     29 N         142.6611  143.9908  160.0278 N.3     1  UNL1       -0.2660
     30 C         141.4609  144.8372  160.3329 C.3     1  UNL1        0.0918
     31 C         140.5316  145.2466  159.2289 C.3     1  UNL1        0.1128
     32 C         138.9437  145.6284  155.6120 C.3     1  UNL1        0.1960
     33 S         139.8730  145.2189  156.7159 S.O2    1  UNL1        0.0457
     34 O         139.8866  143.8163  156.1843 O.2     1  UNL1       -0.1572
     35 O         139.8595  146.6215  157.2474 O.2     1  UNL1       -0.1572
@<TRIPOS>BOND
     1    32    33    1
     2    33    34    2
     3    33    35    2
     4    33    26    1
     5    26    27    1
     6    27    28    1
     7    28    29    1
     8    29    25    1
     9    25     1    1
    10     1     2   ar
    11     2     3   ar
    12     3     4   ar
    13     4     5   ar
    14     5    10    1
    15    10    11    2
    16    11    12    1
    17    12    13    2
    18    13    14    1
    19    14    15    2
    20    15    16    1
    21    16    17    2
    22    17    18    1
    23     5     6   ar
    24     6     7   ar
    25     7    19    1
    26    19    20    1
    27    20    21    1
    28    21    22    1
    29    22    23    1
    30    23    24    1
    31     7     8   ar
    32     8     9   ar
    33    29    30    1
    34    30    31    1
    35    31    26    1
    36     9     1   ar
    37     8     3   ar
    38    18    10    1
    39    24    19    1
    40    18    14    1
@<TRIPOS>MOLECULE
*****
 35 40 0 0 0
SMALL
GASTEIGER

@<TRIPOS>ATOM
      1 C         142.8018  142.9031  161.7502 C.ar    1  UNL1        0.0251
      2 C         143.1706  143.4037  163.1152 C.ar    1  UNL1        0.0233
      3 C         142.2995  142.7043  164.1163 C.ar    1  UNL1        0.0918
      4 N         142.2152  142.7965  165.6111 N.ar    1  UNL1       -0.2262
      5 C         141.2237  141.9557  166.3595 C.ar    1  UNL1        0.1604
      6 N         140.3166  141.0229  165.6132 N.ar    1  UNL1       -0.2117
      7 C         140.4010  140.9308  164.1184 C.ar    1  UNL1        0.1409
      8 C         141.3924  141.7715  163.3700 C.ar    1  UNL1        0.0785
      9 S         141.7029  141.8943  161.9076 S.2     1  UNL1       -0.0856
     10 C         141.1393  142.0478  167.8544 C.2     1  UNL1        0.0247
     11 C         140.3997  143.1846  168.4952 C.2     1  UNL1       -0.0005
     12 C         140.3154  143.2767  169.9900 C.2     1  UNL1        0.0011
     13 C         140.9706  142.2320  170.8439 C.2     1  UNL1        0.0172
     14 C         141.7101  141.0952  170.2031 C.2     1  UNL1        0.0900
     15 N         142.4499  139.9257  170.7821 N.2     1  UNL1       -0.1519
     16 N         142.9915  139.1109  169.6451 N.2     1  UNL1       -0.1507
     17 C         142.5864  139.7768  168.3634 C.2     1  UNL1        0.1058
     18 C         141.7945  141.0031  168.7083 C.3     1  UNL1        0.1103
     19 N         139.4939  139.9980  163.3721 N.pl3   1  UNL1       -0.2876
     20 C         139.6408  138.5146  163.5402 C.3     1  UNL1        0.1243
     21 C         138.7337  137.5818  162.7939 C.3     1  UNL1        0.1636
     22 O         137.6797  138.1322  161.8795 O.3     1  UNL1       -0.3501
     23 C         137.5328  139.6155  161.7114 C.3     1  UNL1        0.1636
     24 C         138.4399  140.5484  162.4577 C.3     1  UNL1        0.1243
     25 C         143.4230  143.3353  160.4550 C.3     1  UNL1        0.1058
     26 N         140.8984  145.3137  157.2986 N.3     1  UNL1       -0.1565
     27 C         140.5830  145.5214  158.7503 C.3     1  UNL1        0.1128
     28 C         141.4246  144.8619  159.8024 C.3     1  UNL1        0.0918
     29 N         142.5815  143.9947  159.4029 N.3     1  UNL1       -0.2660
     30 C         142.8968  143.7870  157.9511 C.3     1  UNL1        0.0918
     31 C         142.0552  144.4465  156.8991 C.3     1  UNL1        0.1128
     32 C         139.2153  146.6326  155.1945 C.3     1  UNL1        0.1960
     33 S         140.0569  145.9731  156.2465 S.O2    1  UNL1        0.0457
     34 O         140.5677  144.9985  155.2271 O.2     1  UNL1       -0.1572
     35 O         139.5460  146.9477  157.2659 O.2     1  UNL1       -0.1572
@<TRIPOS>BOND
     1    32    33    1
     2    33    34    2
     3    33    35    2
     4    33    26    1
     5    26    27    1
     6    27    28    1
     7    28    29    1
     8    29    25    1
     9    25     1    1
    10     1     2   ar
    11     2     3   ar
    12     3     4   ar
    13     4     5   ar
    14     5    10    1
    15    10    11    2
    16    11    12    1
    17    12    13    2
    18    13    14    1
    19    14    15    2
    20    15    16    1
    21    16    17    2
    22    17    18    1
    23     5     6   ar
    24     6     7   ar
    25     7    19    1
    26    19    20    1
    27    20    21    1
    28    21    22    1
    29    22    23    1
    30    23    24    1
    31     7     8   ar
    32     8     9   ar
    33    29    30    1
    34    30    31    1
    35    31    26    1
    36     9     1   ar
    37     8     3   ar
    38    18    10    1
    39    24    19    1
    40    18    14    1
@<TRIPOS>MOLECULE
*****
 35 40 0 0 0
SMALL
GASTEIGER

@<TRIPOS>ATOM
      1 C         140.3168  144.4116  162.6947 C.ar    1  UNL1        0.0251
      2 C         140.7505  144.6842  164.1045 C.ar    1  UNL1        0.0233
      3 C         140.8185  143.3733  164.8302 C.ar    1  UNL1        0.0918
      4 N         141.1865  143.0257  166.2422 N.ar    1  UNL1       -0.2262
      5 C         141.1627  141.5951  166.6929 C.ar    1  UNL1        0.1604
      6 N         140.7709  140.5124  165.7318 N.ar    1  UNL1       -0.2117
      7 C         140.4029  140.8600  164.3198 C.ar    1  UNL1        0.1409
      8 C         140.4267  142.2904  163.8690 C.ar    1  UNL1        0.0785
      9 S         140.1166  142.9321  162.5491 S.2     1  UNL1       -0.0856
     10 C         141.5307  141.2475  168.1050 C.2     1  UNL1        0.0247
     11 C         142.9243  141.4978  168.6002 C.2     1  UNL1       -0.0005
     12 C         143.2923  141.1502  170.0121 C.2     1  UNL1        0.0011
     13 C         142.2666  140.5522  170.9290 C.2     1  UNL1        0.0172
     14 C         140.8730  140.3019  170.4338 C.2     1  UNL1        0.0900
     15 N         139.6584  139.7287  171.1017 N.2     1  UNL1       -0.1519
     16 N         138.5397  139.7221  170.1025 N.2     1  UNL1       -0.1507
     17 C         139.0630  140.2912  168.8171 C.2     1  UNL1        0.1058
     18 C         140.5051  140.6495  169.0218 C.3     1  UNL1        0.1103
     19 N         140.0111  139.7771  163.3585 N.pl3   1  UNL1       -0.2876
     20 C         141.0619  139.0770  162.5485 C.3     1  UNL1        0.1243
     21 C         140.6701  137.9942  161.5874 C.3     1  UNL1        0.1636
     22 O         139.2277  137.6113  161.4361 O.3     1  UNL1       -0.3501
     23 C         138.1770  138.3114  162.2460 C.3     1  UNL1        0.1636
     24 C         138.5687  139.3943  163.2073 C.3     1  UNL1        0.1243
     25 C         140.1180  145.4382  161.6192 C.3     1  UNL1        0.1058
     26 N         141.8326  144.7576  157.5147 N.3     1  UNL1       -0.1565
     27 C         142.3958  144.0217  158.6942 C.3     1  UNL1        0.1128
     28 C         141.8242  144.2486  160.0624 C.3     1  UNL1        0.0918
     29 N         140.6895  145.2113  160.2510 N.3     1  UNL1       -0.2660
     30 C         140.1263  145.9472  159.0714 C.3     1  UNL1        0.0918
     31 C         140.6979  145.7203  157.7033 C.3     1  UNL1        0.1128
     32 C         142.9756  144.3039  154.7784 C.3     1  UNL1        0.1960
     33 S         142.4041  144.5308  156.1465 S.O2    1  UNL1        0.0457
     34 O         141.6282  145.7050  155.6277 O.2     1  UNL1       -0.1572
     35 O         143.1799  143.3565  156.6652 O.2     1  UNL1       -0.1572
@<TRIPOS>BOND
     1    32    33    1
     2    33    34    2
     3    33    35    2
     4    33    26    1
     5    26    27    1
     6    27    28    1
     7    28    29    1
     8    29    25    1
     9    25     1    1
    10     1     2   ar
    11     2     3   ar
    12     3     4   ar
    13     4     5   ar
    14     5    10    1
    15    10    11    2
    16    11    12    1
    17    12    13    2
    18    13    14    1
    19    14    15    2
    20    15    16    1
    21    16    17    2
    22    17    18    1
    23     5     6   ar
    24     6     7   ar
    25     7    19    1
    26    19    20    1
    27    20    21    1
    28    21    22    1
    29    22    23    1
    30    23    24    1
    31     7     8   ar
    32     8     9   ar
    33    29    30    1
    34    30    31    1
    35    31    26    1
    36     9     1   ar
    37     8     3   ar
    38    18    10    1
    39    24    19    1
    40    18    14    1
@<TRIPOS>MOLECULE
*****
 35 40 0 0 0
SMALL
GASTEIGER

@<TRIPOS>ATOM
      1 C         139.6078  138.7403  162.4483 C.ar    1  UNL1        0.0251
      2 C         139.4720  138.3377  163.8868 C.ar    1  UNL1        0.0233
      3 C         140.2807  139.2928  164.7137 C.ar    1  UNL1        0.0918
      4 N         140.5205  139.3867  166.1914 N.ar    1  UNL1       -0.2262
      5 C         141.3959  140.4735  166.7416 C.ar    1  UNL1        0.1604
      6 N         142.0315  141.4662  165.8141 N.ar    1  UNL1       -0.2117
      7 C         141.7918  141.3723  164.3364 C.ar    1  UNL1        0.1409
      8 C         140.9164  140.2856  163.7862 C.ar    1  UNL1        0.0785
      9 S         140.5005  139.9441  162.3860 S.2     1  UNL1       -0.0856
     10 C         141.6356  140.5675  168.2194 C.2     1  UNL1        0.0247
     11 C         142.3888  139.4807  168.9276 C.2     1  UNL1       -0.0005
     12 C         142.6286  139.5746  170.4053 C.2     1  UNL1        0.0011
     13 C         142.1151  140.7554  171.1748 C.2     1  UNL1        0.0172
     14 C         141.3619  141.8422  170.4667 C.2     1  UNL1        0.0900
     15 N         140.7405  143.1163  170.9570 N.2     1  UNL1       -0.1519
     16 N         140.1167  143.8098  169.7824 N.2     1  UNL1       -0.1507
     17 C         140.3526  142.9643  168.5660 C.2     1  UNL1        0.1058
     18 C         141.1222  141.7482  168.9889 C.3     1  UNL1        0.1103
     19 N         142.4275  142.3651  163.4088 N.pl3   1  UNL1       -0.2876
     20 C         141.6359  143.5365  162.9072 C.3     1  UNL1        0.1243
     21 C         142.2715  144.5292  161.9797 C.3     1  UNL1        0.1636
     22 O         143.6987  144.3508  161.5538 O.3     1  UNL1       -0.3501
     23 C         144.4902  143.1795  162.0554 C.3     1  UNL1        0.1636
     24 C         143.8546  142.1866  162.9829 C.3     1  UNL1        0.1243
     25 C         138.9640  138.0586  161.2774 C.3     1  UNL1        0.1058
     26 N         138.5736  140.2212  157.3504 N.3     1  UNL1       -0.1565
     27 C         139.5727  139.1124  157.4999 C.3     1  UNL1        0.1128
     28 C         139.7028  138.3915  158.8090 C.3     1  UNL1        0.0918
     29 N         138.8338  138.7795  159.9685 N.3     1  UNL1       -0.2660
     30 C         137.8348  139.8883  159.8189 C.3     1  UNL1        0.0918
     31 C         137.7047  140.6091  158.5099 C.3     1  UNL1        0.1128
     32 C         138.3133  141.6629  154.7325 C.3     1  UNL1        0.1960
     33 S         138.4435  140.9420  156.0415 S.O2    1  UNL1        0.0457
     34 O         139.9291  140.8628  155.8501 O.2     1  UNL1       -0.1572
     35 O         136.9579  141.0213  156.2328 O.2     1  UNL1       -0.1572
@<TRIPOS>BOND
     1    32    33    1
     2    33    34    2
     3    33    35    2
     4    33    26    1
     5    26    27    1
     6    27    28    1
     7    28    29    1
     8    29    25    1
     9    25     1    1
    10     1     2   ar
    11     2     3   ar
    12     3     4   ar
    13     4     5   ar
    14     5    10    1
    15    10    11    2
    16    11    12    1
    17    12    13    2
    18    13    14    1
    19    14    15    2
    20    15    16    1
    21    16    17    2
    22    17    18    1
    23     5     6   ar
    24     6     7   ar
    25     7    19    1
    26    19    20    1
    27    20    21    1
    28    21    22    1
    29    22    23    1
    30    23    24    1
    31     7     8   ar
    32     8     9   ar
    33    29    30    1
    34    30    31    1
    35    31    26    1
    36     9     1   ar
    37     8     3   ar
    38    18    10    1
    39    24    19    1
    40    18    14    1
@<TRIPOS>MOLECULE
*****
 35 40 0 0 0
SMALL
GASTEIGER

@<TRIPOS>ATOM
      1 C         142.2232  143.5236  162.3681 C.ar    1  UNL1        0.0251
      2 C         142.7560  143.7225  163.7561 C.ar    1  UNL1        0.0233
      3 C         142.1289  142.6902  164.6456 C.ar    1  UNL1        0.0918
      4 N         142.2771  142.4042  166.1106 N.ar    1  UNL1       -0.2262
      5 C         141.5049  141.2812  166.7373 C.ar    1  UNL1        0.1604
      6 N         140.5847  140.4443  165.8991 N.ar    1  UNL1       -0.2117
      7 C         140.4365  140.7304  164.4341 C.ar    1  UNL1        0.1409
      8 C         141.2087  141.8533  163.8074 C.ar    1  UNL1        0.0785
      9 S         141.2669  142.3684  162.3998 S.2     1  UNL1       -0.0856
     10 C         141.6531  140.9951  168.2024 C.2     1  UNL1        0.0247
     11 C         142.4079  139.7812  168.6570 C.2     1  UNL1       -0.0005
     12 C         142.5560  139.4952  170.1220 C.2     1  UNL1        0.0011
     13 C         141.9493  140.4231  171.1324 C.2     1  UNL1        0.0172
     14 C         141.1945  141.6370  170.6778 C.2     1  UNL1        0.0900
     15 N         140.4927  142.7247  171.4358 N.2     1  UNL1       -0.1519
     16 N         139.9108  143.6829  170.4392 N.2     1  UNL1       -0.1507
     17 C         140.2530  143.1874  169.0654 C.2     1  UNL1        0.1058
     18 C         141.0464  141.9230  169.2128 C.3     1  UNL1        0.1103
     19 N         139.5162  139.8935  163.5959 N.pl3   1  UNL1       -0.2876
     20 C         139.6476  138.3991  163.6015 C.3     1  UNL1        0.1243
     21 C         138.7274  137.5623  162.7633 C.3     1  UNL1        0.1636
     22 O         137.6757  138.2195  161.9194 O.3     1  UNL1       -0.3501
     23 C         137.5444  139.7137  161.9138 C.3     1  UNL1        0.1636
     24 C         138.4646  140.5508  162.7520 C.3     1  UNL1        0.1243
     25 C         142.5835  144.3370  161.1605 C.3     1  UNL1        0.1058
     26 N         144.1371  142.3030  157.4592 N.3     1  UNL1       -0.1565
     27 C         144.7367  141.9857  158.7971 C.3     1  UNL1        0.1128
     28 C         144.2187  142.6638  160.0308 C.3     1  UNL1        0.0918
     29 N         143.1013  143.6591  159.9267 N.3     1  UNL1       -0.2660
     30 C         142.5018  143.9762  158.5888 C.3     1  UNL1        0.0918
     31 C         143.0197  143.2982  157.3551 C.3     1  UNL1        0.1128
     32 C         145.1728  140.9469  154.9918 C.3     1  UNL1        0.1960
     33 S         144.6549  141.6250  156.2255 S.O2    1  UNL1        0.0457
     34 O         144.3262  142.8450  155.4171 O.2     1  UNL1       -0.1572
     35 O         144.9837  140.4050  157.0339 O.2     1  UNL1       -0.1572
@<TRIPOS>BOND
     1    32    33    1
     2    33    34    2
     3    33    35    2
     4    33    26    1
     5    26    27    1
     6    27    28    1
     7    28    29    1
     8    29    25    1
     9    25     1    1
    10     1     2   ar
    11     2     3   ar
    12     3     4   ar
    13     4     5   ar
    14     5    10    1
    15    10    11    2
    16    11    12    1
    17    12    13    2
    18    13    14    1
    19    14    15    2
    20    15    16    1
    21    16    17    2
    22    17    18    1
    23     5     6   ar
    24     6     7   ar
    25     7    19    1
    26    19    20    1
    27    20    21    1
    28    21    22    1
    29    22    23    1
    30    23    24    1
    31     7     8   ar
    32     8     9   ar
    33    29    30    1
    34    30    31    1
    35    31    26    1
    36     9     1   ar
    37     8     3   ar
    38    18    10    1
    39    24    19    1
    40    18    14    1
