@<TRIPOS>MOLECULE
*****
 26 31 0 0 0
SMALL
GASTEIGER

@<TRIPOS>ATOM
      1 C         140.8486  144.2476  159.6073 C.2     1  UNL1        0.1207
      2 C         139.7969  143.8385  158.6191 C.2     1  UNL1        0.0342
      3 C         138.7435  142.8458  159.0126 C.2     1  UNL1        0.0215
      4 C         138.7418  142.2622  160.3944 C.2     1  UNL1        0.0772
      5 N         137.8375  141.2702  161.0638 N.2     1  UNL1       -0.2489
      6 C         138.3302  141.0662  162.4658 C.2     1  UNL1        0.0710
      7 C         139.5391  141.9321  162.6628 C.2     1  UNL1       -0.0077
      8 C         139.7935  142.6713  161.3827 C.2     1  UNL1        0.0003
      9 C         140.8468  143.6640  160.9891 C.3     1  UNL1        0.0914
     10 C         140.2520  141.9356  163.9826 C.3     1  UNL1        0.0478
     11 C         139.7561  141.0733  165.1052 C.3     1  UNL1        0.0846
     12 C         140.4691  141.0768  166.4250 C.ar    1  UNL1       -0.0081
     13 C         141.6780  141.9427  166.6220 C.ar    1  UNL1        0.0369
     14 C         142.3909  141.9463  167.9417 C.ar    1  UNL1        0.1761
     15 C         141.8950  141.0839  169.0644 C.ar    1  UNL1        0.1761
     16 C         140.6862  140.2180  168.8674 C.ar    1  UNL1        0.0357
     17 C         139.9732  140.2145  167.5476 C.ar    1  UNL1       -0.0203
     18 C         138.7643  139.3486  167.3506 C.3     1  UNL1        0.0435
     19 C         138.0513  139.3450  166.0309 C.3     1  UNL1        0.0774
     20 N         138.5473  140.2074  164.9082 N.3     1  UNL1       -0.2647
     21 C         137.8343  140.2039  163.5885 C.3     1  UNL1        0.1185
     22 O         142.7970  141.2948  170.2442 O.3     1  UNL1       -0.4346
     23 C         143.8504  142.2875  169.8507 C.3     1  UNL1        0.4294
     24 O         143.5995  142.6901  168.4277 O.3     1  UNL1       -0.4346
     25 C         141.9183  145.8056  157.8244 C.3     1  UNL1        0.2520
     26 O         141.9020  145.2404  159.2138 O.2     1  UNL1       -0.4753
@<TRIPOS>BOND
     1    25    26    1
     2    26     1    1
     3     1     2    2
     4     2     3    1
     5     3     4    2
     6     4     5    1
     7     5     6    2
     8     6     7    1
     9     7     8    2
    10     8     9    1
    11     7    10    1
    12    11    10    1
    13    11    12    1
    14    12    13   ar
    15    13    14   ar
    16    14    15   ar
    17    15    16   ar
    18    16    17   ar
    19    17    18    1
    20    18    19    1
    21    19    20    1
    22    20    21    1
    23    15    22    1
    24    22    23    1
    25    23    24    1
    26     9     1    1
    27    20    11    1
    28     8     4    1
    29    17    12   ar
    30    21     6    1
    31    24    14    1
@<TRIPOS>MOLECULE
*****
 26 31 0 0 0
SMALL
GASTEIGER

@<TRIPOS>ATOM
      1 C         141.0912  142.4748  169.7620 C.2     1  UNL1        0.1207
      2 C         140.6491  141.3484  170.6485 C.2     1  UNL1        0.0342
      3 C         139.8909  140.1911  170.0689 C.2     1  UNL1        0.0215
      4 C         139.5749  140.1602  168.6028 C.2     1  UNL1        0.0772
      5 N         138.8485  139.1597  167.7536 N.2     1  UNL1       -0.2489
      6 C         138.8417  139.6677  166.3423 C.2     1  UNL1        0.0710
      7 C         139.5639  140.9822  166.3193 C.2     1  UNL1       -0.0077
      8 C         140.0171  141.2866  167.7164 C.2     1  UNL1        0.0003
      9 C         140.7752  142.4439  168.2960 C.3     1  UNL1        0.0914
     10 C         139.7156  141.7322  165.0291 C.3     1  UNL1        0.0478
     11 C         139.1451  141.1677  163.7620 C.3     1  UNL1        0.0846
     12 C         139.2967  141.9176  162.4717 C.ar    1  UNL1       -0.0081
     13 C         140.0189  143.2321  162.4488 C.ar    1  UNL1        0.0369
     14 C         140.1706  143.9821  161.1586 C.ar    1  UNL1        0.1761
     15 C         139.6000  143.4176  159.8914 C.ar    1  UNL1        0.1761
     16 C         138.8778  142.1031  159.9143 C.ar    1  UNL1        0.0357
     17 C         138.7262  141.3532  161.2046 C.ar    1  UNL1       -0.0203
     18 C         138.0040  140.0386  161.2275 C.3     1  UNL1        0.0435
     19 C         137.8523  139.2886  162.5177 C.3     1  UNL1        0.0774
     20 N         138.4229  139.8532  163.7849 N.3     1  UNL1       -0.2647
     21 C         138.2712  139.1032  165.0751 C.3     1  UNL1        0.1185
     22 O         139.9035  144.3767  158.7788 O.3     1  UNL1       -0.4346
     23 C         140.6617  145.5340  159.3584 C.3     1  UNL1        0.4294
     24 O         140.8267  145.2901  160.8292 O.3     1  UNL1       -0.4346
     25 C         143.2927  143.4709  170.7167 C.3     1  UNL1        0.2520
     26 O         141.8493  143.6322  170.3416 O.2     1  UNL1       -0.4753
@<TRIPOS>BOND
     1    25    26    1
     2    26     1    1
     3     1     2    2
     4     2     3    1
     5     3     4    2
     6     4     5    1
     7     5     6    2
     8     6     7    1
     9     7     8    2
    10     8     9    1
    11     7    10    1
    12    11    10    1
    13    11    12    1
    14    12    13   ar
    15    13    14   ar
    16    14    15   ar
    17    15    16   ar
    18    16    17   ar
    19    17    18    1
    20    18    19    1
    21    19    20    1
    22    20    21    1
    23    15    22    1
    24    22    23    1
    25    23    24    1
    26     9     1    1
    27    20    11    1
    28     8     4    1
    29    17    12   ar
    30    21     6    1
    31    24    14    1
@<TRIPOS>MOLECULE
*****
 26 31 0 0 0
SMALL
GASTEIGER

@<TRIPOS>ATOM
      1 C         140.8045  142.4178  169.5422 C.2     1  UNL1        0.1207
      2 C         139.9114  141.6403  170.4630 C.2     1  UNL1        0.0342
      3 C         139.1029  140.4937  169.9323 C.2     1  UNL1        0.0215
      4 C         139.1876  140.1245  168.4809 C.2     1  UNL1        0.0772
      5 N         138.5142  139.0520  167.6771 N.2     1  UNL1       -0.2489
      6 C         138.9911  139.1666  166.2596 C.2     1  UNL1        0.0710
      7 C         139.9593  140.3100  166.1874 C.2     1  UNL1       -0.0077
      8 C         140.0807  140.9020  167.5601 C.2     1  UNL1        0.0003
      9 C         140.8892  142.0486  168.0908 C.3     1  UNL1        0.0914
     10 C         140.6052  140.6643  164.8807 C.3     1  UNL1        0.0478
     11 C         140.2830  139.8752  163.6464 C.3     1  UNL1        0.0846
     12 C         140.9289  140.2295  162.3398 C.ar    1  UNL1       -0.0081
     13 C         141.8971  141.3729  162.2675 C.ar    1  UNL1        0.0369
     14 C         142.5431  141.7272  160.9609 C.ar    1  UNL1        0.1761
     15 C         142.2209  140.9382  159.7266 C.ar    1  UNL1        0.1761
     16 C         141.2527  139.7948  159.7988 C.ar    1  UNL1        0.0357
     17 C         140.6067  139.4405  161.1055 C.ar    1  UNL1       -0.0203
     18 C         139.6385  138.2970  161.1778 C.3     1  UNL1        0.0435
     19 C         138.9925  137.9427  162.4844 C.3     1  UNL1        0.0774
     20 N         139.3148  138.7318  163.7187 N.3     1  UNL1       -0.2647
     21 C         138.6689  138.3775  165.0253 C.3     1  UNL1        0.1185
     22 O         143.0076  141.5167  158.5880 O.3     1  UNL1       -0.4346
     23 C         143.8160  142.6633  159.1187 C.3     1  UNL1        0.4294
     24 O         143.5290  142.7935  160.5852 O.3     1  UNL1       -0.4346
     25 C         142.9849  143.3212  170.6285 C.3     1  UNL1        0.2520
     26 O         141.6130  143.5645  170.0728 O.2     1  UNL1       -0.4753
@<TRIPOS>BOND
     1    25    26    1
     2    26     1    1
     3     1     2    2
     4     2     3    1
     5     3     4    2
     6     4     5    1
     7     5     6    2
     8     6     7    1
     9     7     8    2
    10     8     9    1
    11     7    10    1
    12    11    10    1
    13    11    12    1
    14    12    13   ar
    15    13    14   ar
    16    14    15   ar
    17    15    16   ar
    18    16    17   ar
    19    17    18    1
    20    18    19    1
    21    19    20    1
    22    20    21    1
    23    15    22    1
    24    22    23    1
    25    23    24    1
    26     9     1    1
    27    20    11    1
    28     8     4    1
    29    17    12   ar
    30    21     6    1
    31    24    14    1
@<TRIPOS>MOLECULE
*****
 26 31 0 0 0
SMALL
GASTEIGER

@<TRIPOS>ATOM
      1 C         142.2456  144.1055  159.8225 C.2     1  UNL1        0.1207
      2 C         142.9363  143.3418  158.7318 C.2     1  UNL1        0.0342
      3 C         143.5700  142.0154  159.0303 C.2     1  UNL1        0.0215
      4 C         143.5130  141.4527  160.4196 C.2     1  UNL1        0.0772
      5 N         144.0430  140.1794  161.0094 N.2     1  UNL1       -0.2489
      6 C         143.6799  140.1562  162.4645 C.2     1  UNL1        0.0710
      7 C         142.9254  141.4151  162.7741 C.2     1  UNL1       -0.0077
      8 C         142.8222  142.2164  161.5104 C.2     1  UNL1        0.0003
      9 C         142.1885  143.5428  161.2118 C.3     1  UNL1        0.0914
     10 C         142.4298  141.6691  164.1670 C.3     1  UNL1        0.0478
     11 C         142.6887  140.6643  165.2500 C.3     1  UNL1        0.0846
     12 C         142.1931  140.9183  166.6429 C.ar    1  UNL1       -0.0081
     13 C         141.4386  142.1772  166.9525 C.ar    1  UNL1        0.0369
     14 C         140.9429  142.4312  168.3453 C.ar    1  UNL1        0.1761
     15 C         141.2018  141.4264  169.4284 C.ar    1  UNL1        0.1761
     16 C         141.9563  140.1675  169.1188 C.ar    1  UNL1        0.0357
     17 C         142.4519  139.9135  167.7260 C.ar    1  UNL1       -0.0203
     18 C         143.2065  138.6545  167.4163 C.3     1  UNL1        0.0435
     19 C         143.7021  138.4005  166.0236 C.3     1  UNL1        0.0774
     20 N         143.4432  139.4054  164.9404 N.3     1  UNL1       -0.2647
     21 C         143.9388  139.1513  163.5477 C.3     1  UNL1        0.1185
     22 O         140.5954  141.9466  170.6979 O.3     1  UNL1       -0.4346
     23 C         139.9617  143.2729  170.3993 C.3     1  UNL1        0.4294
     24 O         140.1765  143.5725  168.9453 O.3     1  UNL1       -0.4346
     25 C         140.4112  145.5047  158.6277 C.3     1  UNL1        0.2520
     26 O         141.6119  145.4319  159.5239 O.2     1  UNL1       -0.4753
@<TRIPOS>BOND
     1    25    26    1
     2    26     1    1
     3     1     2    2
     4     2     3    1
     5     3     4    2
     6     4     5    1
     7     5     6    2
     8     6     7    1
     9     7     8    2
    10     8     9    1
    11     7    10    1
    12    11    10    1
    13    11    12    1
    14    12    13   ar
    15    13    14   ar
    16    14    15   ar
    17    15    16   ar
    18    16    17   ar
    19    17    18    1
    20    18    19    1
    21    19    20    1
    22    20    21    1
    23    15    22    1
    24    22    23    1
    25    23    24    1
    26     9     1    1
    27    20    11    1
    28     8     4    1
    29    17    12   ar
    30    21     6    1
    31    24    14    1
@<TRIPOS>MOLECULE
*****
 26 31 0 0 0
SMALL
GASTEIGER

@<TRIPOS>ATOM
      1 C         141.0529  141.8703  170.0500 C.2     1  UNL1        0.1207
      2 C         141.5340  140.7098  170.8696 C.2     1  UNL1        0.0342
      3 C         142.2760  139.5840  170.2125 C.2     1  UNL1        0.0215
      4 C         142.5369  139.6186  168.7357 C.2     1  UNL1        0.0772
      5 N         143.2362  138.6608  167.8173 N.2     1  UNL1       -0.2489
      6 C         143.1873  139.2293  166.4301 C.2     1  UNL1        0.0710
      7 C         142.4577  140.5385  166.4912 C.2     1  UNL1       -0.0077
      8 C         142.0558  140.7791  167.9161 C.2     1  UNL1        0.0003
      9 C         141.3138  141.9049  168.5733 C.3     1  UNL1        0.0914
     10 C         142.2537  141.3424  165.2413 C.3     1  UNL1        0.0478
     11 C         142.7792  140.8371  163.9305 C.3     1  UNL1        0.0846
     12 C         142.5752  141.6410  162.6806 C.ar    1  UNL1       -0.0081
     13 C         141.8456  142.9502  162.7417 C.ar    1  UNL1        0.0369
     14 C         141.6416  143.7541  161.4919 C.ar    1  UNL1        0.1761
     15 C         142.1671  143.2489  160.1809 C.ar    1  UNL1        0.1761
     16 C         142.8967  141.9397  160.1198 C.ar    1  UNL1        0.0357
     17 C         143.1007  141.1358  161.3697 C.ar    1  UNL1       -0.0203
     18 C         143.8303  139.8265  161.3086 C.3     1  UNL1        0.0435
     19 C         144.0343  139.0226  162.5585 C.3     1  UNL1        0.0774
     20 N         143.5088  139.5279  163.8694 N.3     1  UNL1       -0.2647
     21 C         143.7128  138.7240  165.1192 C.3     1  UNL1        0.1185
     22 O         141.8169  144.2530  159.1231 O.3     1  UNL1       -0.4346
     23 C         141.0749  145.3788  159.7802 C.3     1  UNL1        0.4294
     24 O         140.9665  145.0706  161.2442 O.3     1  UNL1       -0.4346
     25 C         140.3330  144.3663  170.0968 C.3     1  UNL1        0.2520
     26 O         140.3109  142.9963  170.7072 O.2     1  UNL1       -0.4753
@<TRIPOS>BOND
     1    25    26    1
     2    26     1    1
     3     1     2    2
     4     2     3    1
     5     3     4    2
     6     4     5    1
     7     5     6    2
     8     6     7    1
     9     7     8    2
    10     8     9    1
    11     7    10    1
    12    11    10    1
    13    11    12    1
    14    12    13   ar
    15    13    14   ar
    16    14    15   ar
    17    15    16   ar
    18    16    17   ar
    19    17    18    1
    20    18    19    1
    21    19    20    1
    22    20    21    1
    23    15    22    1
    24    22    23    1
    25    23    24    1
    26     9     1    1
    27    20    11    1
    28     8     4    1
    29    17    12   ar
    30    21     6    1
    31    24    14    1
@<TRIPOS>MOLECULE
*****
 26 31 0 0 0
SMALL
GASTEIGER

@<TRIPOS>ATOM
      1 C         143.1860  140.1631  159.5002 C.2     1  UNL1        0.1207
      2 C         142.3855  139.3812  158.5013 C.2     1  UNL1        0.0342
      3 C         141.1322  138.6776  158.9303 C.2     1  UNL1        0.0215
      4 C         140.6793  138.7559  160.3582 C.2     1  UNL1        0.0772
      5 N         139.4950  138.1709  161.0691 N.2     1  UNL1       -0.2489
      6 C         139.5636  138.5913  162.5073 C.2     1  UNL1        0.0710
      7 C         140.7902  139.4361  162.6852 C.2     1  UNL1       -0.0077
      8 C         141.4797  139.5378  161.3571 C.2     1  UNL1        0.0003
      9 C         142.7331  140.2414  160.9281 C.3     1  UNL1        0.0914
     10 C         141.1208  140.0036  164.0339 C.3     1  UNL1        0.0478
     11 C         140.2248  139.7263  165.2044 C.3     1  UNL1        0.0846
     12 C         140.5554  140.2938  166.5530 C.ar    1  UNL1       -0.0081
     13 C         141.7820  141.1386  166.7310 C.ar    1  UNL1        0.0369
     14 C         142.1126  141.7061  168.0796 C.ar    1  UNL1        0.1761
     15 C         141.2166  141.4288  169.2501 C.ar    1  UNL1        0.1761
     16 C         139.9900  140.5840  169.0722 C.ar    1  UNL1        0.0357
     17 C         139.6594  140.0165  167.7235 C.ar    1  UNL1       -0.0203
     18 C         138.4327  139.1717  167.5455 C.3     1  UNL1        0.0435
     19 C         138.1021  138.6042  166.1970 C.3     1  UNL1        0.0774
     20 N         138.9982  138.8815  165.0264 N.3     1  UNL1       -0.2647
     21 C         138.6676  138.3140  163.6779 C.3     1  UNL1        0.1185
     22 O         141.7948  142.1186  170.4501 O.3     1  UNL1       -0.4346
     23 C         143.0481  142.8222  170.0211 C.3     1  UNL1        0.4294
     24 O         143.2446  142.5673  168.5561 O.3     1  UNL1       -0.4346
     25 C         144.4124  142.3389  158.7847 C.3     1  UNL1        0.2520
     26 O         144.4394  140.8668  159.0713 O.2     1  UNL1       -0.4753
@<TRIPOS>BOND
     1    25    26    1
     2    26     1    1
     3     1     2    2
     4     2     3    1
     5     3     4    2
     6     4     5    1
     7     5     6    2
     8     6     7    1
     9     7     8    2
    10     8     9    1
    11     7    10    1
    12    11    10    1
    13    11    12    1
    14    12    13   ar
    15    13    14   ar
    16    14    15   ar
    17    15    16   ar
    18    16    17   ar
    19    17    18    1
    20    18    19    1
    21    19    20    1
    22    20    21    1
    23    15    22    1
    24    22    23    1
    25    23    24    1
    26     9     1    1
    27    20    11    1
    28     8     4    1
    29    17    12   ar
    30    21     6    1
    31    24    14    1
@<TRIPOS>MOLECULE
*****
 26 31 0 0 0
SMALL
GASTEIGER

@<TRIPOS>ATOM
      1 C         140.6777  142.2232  168.5482 C.2     1  UNL1        0.1207
      2 C         140.1813  141.0560  169.3489 C.2     1  UNL1        0.0342
      3 C         139.4515  139.9359  168.6685 C.2     1  UNL1        0.0215
      4 C         139.2182  139.9831  167.1875 C.2     1  UNL1        0.0772
      5 N         138.5359  139.0332  166.2482 N.2     1  UNL1       -0.2489
      6 C         138.6107  139.6134  164.8670 C.2     1  UNL1        0.0710
      7 C         139.3392  140.9218  164.9527 C.2     1  UNL1       -0.0077
      8 C         139.7146  141.1503  166.3868 C.2     1  UNL1        0.0003
      9 C         140.4444  142.2703  167.0671 C.3     1  UNL1        0.0914
     10 C         139.5666  141.7361  163.7136 C.3     1  UNL1        0.0478
     11 C         139.0655  141.2421  162.3890 C.3     1  UNL1        0.0846
     12 C         139.2929  142.0564  161.1499 C.ar    1  UNL1       -0.0081
     13 C         140.0214  143.3648  161.2356 C.ar    1  UNL1        0.0369
     14 C         140.2488  144.1792  159.9967 C.ar    1  UNL1        0.1761
     15 C         139.7477  143.6851  158.6720 C.ar    1  UNL1        0.1761
     16 C         139.0192  142.3767  158.5863 C.ar    1  UNL1        0.0357
     17 C         138.7918  141.5624  159.8253 C.ar    1  UNL1       -0.0203
     18 C         138.0633  140.2539  159.7397 C.3     1  UNL1        0.0435
     19 C         137.8359  139.4395  160.9787 C.3     1  UNL1        0.0774
     20 N         138.3370  139.9337  162.3033 N.3     1  UNL1       -0.2647
     21 C         138.1096  139.1193  163.5423 C.3     1  UNL1        0.1185
     22 O         140.1177  144.6980  157.6293 O.3     1  UNL1       -0.4346
     23 C         140.8475  145.8180  158.3096 C.3     1  UNL1        0.4294
     24 O         140.9285  145.4974  159.7727 O.3     1  UNL1       -0.4346
     25 C         142.5287  143.0406  170.1779 C.3     1  UNL1        0.2520
     26 O         141.4076  143.3434  169.2285 O.2     1  UNL1       -0.4753
@<TRIPOS>BOND
     1    25    26    1
     2    26     1    1
     3     1     2    2
     4     2     3    1
     5     3     4    2
     6     4     5    1
     7     5     6    2
     8     6     7    1
     9     7     8    2
    10     8     9    1
    11     7    10    1
    12    11    10    1
    13    11    12    1
    14    12    13   ar
    15    13    14   ar
    16    14    15   ar
    17    15    16   ar
    18    16    17   ar
    19    17    18    1
    20    18    19    1
    21    19    20    1
    22    20    21    1
    23    15    22    1
    24    22    23    1
    25    23    24    1
    26     9     1    1
    27    20    11    1
    28     8     4    1
    29    17    12   ar
    30    21     6    1
    31    24    14    1
@<TRIPOS>MOLECULE
*****
 26 31 0 0 0
SMALL
GASTEIGER

@<TRIPOS>ATOM
      1 C         142.4165  143.9411  157.5779 C.2     1  UNL1        0.1207
      2 C         141.6261  145.1276  157.1117 C.2     1  UNL1        0.0342
      3 C         140.7226  145.8493  158.0673 C.2     1  UNL1        0.0215
      4 C         140.6096  145.3843  159.4889 C.2     1  UNL1        0.0772
      5 N         139.8072  145.8920  160.6501 N.2     1  UNL1       -0.2489
      6 C         140.1017  145.0192  161.8339 C.2     1  UNL1        0.0710
      7 C         141.0862  143.9721  161.4043 C.2     1  UNL1       -0.0077
      8 C         141.4000  144.1978  159.9551 C.2     1  UNL1        0.0003
      9 C         142.3035  143.4762  158.9995 C.3     1  UNL1        0.0914
     10 C         141.5695  142.9484  162.3884 C.3     1  UNL1        0.0478
     11 C         141.0685  142.9718  163.8020 C.3     1  UNL1        0.0846
     12 C         141.5519  141.9481  164.7862 C.ar    1  UNL1       -0.0081
     13 C         142.5363  140.9010  164.3565 C.ar    1  UNL1        0.0369
     14 C         143.0197  139.8773  165.3406 C.ar    1  UNL1        0.1761
     15 C         142.5187  139.9007  166.7543 C.ar    1  UNL1        0.1761
     16 C         141.5343  140.9477  167.1839 C.ar    1  UNL1        0.0357
     17 C         141.0509  141.9715  166.1997 C.ar    1  UNL1       -0.0203
     18 C         140.0665  143.0186  166.6294 C.3     1  UNL1        0.0435
     19 C         139.5831  144.0423  165.6453 C.3     1  UNL1        0.0774
     20 N         140.0841  144.0188  164.2316 N.3     1  UNL1       -0.2647
     21 C         139.6007  145.0425  163.2476 C.3     1  UNL1        0.1185
     22 O         143.1699  138.7709  167.4956 O.3     1  UNL1       -0.4346
     23 C         144.0733  138.0493  166.5401 C.3     1  UNL1        0.4294
     24 O         143.9805  138.7331  165.2082 O.3     1  UNL1       -0.4346
     25 C         143.0237  143.2363  155.1520 C.3     1  UNL1        0.2520
     26 O         143.3200  143.2194  156.6223 O.2     1  UNL1       -0.4753
@<TRIPOS>BOND
     1    25    26    1
     2    26     1    1
     3     1     2    2
     4     2     3    1
     5     3     4    2
     6     4     5    1
     7     5     6    2
     8     6     7    1
     9     7     8    2
    10     8     9    1
    11     7    10    1
    12    11    10    1
    13    11    12    1
    14    12    13   ar
    15    13    14   ar
    16    14    15   ar
    17    15    16   ar
    18    16    17   ar
    19    17    18    1
    20    18    19    1
    21    19    20    1
    22    20    21    1
    23    15    22    1
    24    22    23    1
    25    23    24    1
    26     9     1    1
    27    20    11    1
    28     8     4    1
    29    17    12   ar
    30    21     6    1
    31    24    14    1
@<TRIPOS>MOLECULE
*****
 26 31 0 0 0
SMALL
GASTEIGER

@<TRIPOS>ATOM
      1 C         142.4035  140.0002  167.5312 C.2     1  UNL1        0.1207
      2 C         141.5502  140.5348  168.6429 C.2     1  UNL1        0.0342
      3 C         140.6585  141.7166  168.4021 C.2     1  UNL1        0.0215
      4 C         140.6200  142.3639  167.0494 C.2     1  UNL1        0.0772
      5 N         139.8456  143.5334  166.5180 N.2     1  UNL1       -0.2489
      6 C         140.2203  143.7216  165.0778 C.2     1  UNL1        0.0710
      7 C         141.2263  142.6684  164.7192 C.2     1  UNL1       -0.0077
      8 C         141.4733  141.8293  165.9376 C.2     1  UNL1        0.0003
      9 C         142.3651  140.6474  166.1785 C.3     1  UNL1        0.0914
     10 C         141.7874  142.6095  163.3293 C.3     1  UNL1        0.0478
     11 C         141.3425  143.6038  162.2982 C.3     1  UNL1        0.0846
     12 C         141.9036  143.5450  160.9082 C.ar    1  UNL1       -0.0081
     13 C         142.9096  142.4918  160.5496 C.ar    1  UNL1        0.0369
     14 C         143.4707  142.4329  159.1597 C.ar    1  UNL1        0.1761
     15 C         143.0258  143.4273  158.1286 C.ar    1  UNL1        0.1761
     16 C         142.0198  144.4805  158.4872 C.ar    1  UNL1        0.0357
     17 C         141.4587  144.5393  159.8771 C.ar    1  UNL1       -0.0203
     18 C         140.4527  145.5926  160.2358 C.3     1  UNL1        0.0435
     19 C         139.8915  145.6515  161.6257 C.3     1  UNL1        0.0774
     20 N         140.3365  144.6571  162.6568 N.3     1  UNL1       -0.2647
     21 C         139.7754  144.7159  164.0467 C.3     1  UNL1        0.1185
     22 O         143.7488  143.1239  156.8498 O.3     1  UNL1       -0.4346
     23 C         144.6405  141.9421  157.0907 C.3     1  UNL1        0.4294
     24 O         144.4687  141.5150  158.5183 O.3     1  UNL1       -0.4346
     25 C         143.7496  137.9741  166.6183 C.3     1  UNL1        0.2520
     26 O         143.2953  138.8182  167.7720 O.2     1  UNL1       -0.4753
@<TRIPOS>BOND
     1    25    26    1
     2    26     1    1
     3     1     2    2
     4     2     3    1
     5     3     4    2
     6     4     5    1
     7     5     6    2
     8     6     7    1
     9     7     8    2
    10     8     9    1
    11     7    10    1
    12    11    10    1
    13    11    12    1
    14    12    13   ar
    15    13    14   ar
    16    14    15   ar
    17    15    16   ar
    18    16    17   ar
    19    17    18    1
    20    18    19    1
    21    19    20    1
    22    20    21    1
    23    15    22    1
    24    22    23    1
    25    23    24    1
    26     9     1    1
    27    20    11    1
    28     8     4    1
    29    17    12   ar
    30    21     6    1
    31    24    14    1
