@<TRIPOS>MOLECULE
*****
 29 31 0 0 0
SMALL
GASTEIGER

@<TRIPOS>ATOM
      1 C         139.9786  137.5375  163.4566 C.3     1  UNL1        0.0722
      2 N         140.1070  138.2971  164.7436 N.3     1  UNL1       -0.2698
      3 C         138.8811  138.6444  165.5351 C.3     1  UNL1        0.0938
      4 C         139.0095  139.4041  166.8221 C.3     1  UNL1        0.1081
      5 N         140.3640  139.8165  167.3176 N.pl3   1  UNL1       -0.3040
      6 C         141.5899  139.4692  166.5261 C.3     1  UNL1        0.1081
      7 C         141.4614  138.7095  165.2391 C.3     1  UNL1        0.0938
      8 C         140.4925  140.5761  168.6046 C.ar    1  UNL1        0.0594
      9 C         140.6818  139.8370  169.8961 C.ar    1  UNL1        0.0154
     10 C         140.8103  140.5967  171.1831 C.ar    1  UNL1        0.0022
     11 C         140.7494  142.0955  171.1786 C.ar    1  UNL1        0.0123
     12 C         140.5601  142.8345  169.8872 C.ar    1  UNL1        0.0694
     13 CL        140.4992  144.3333  169.8827 Cl      1  UNL1       -0.0813
     14 C         140.4316  142.0749  168.6001 C.ar    1  UNL1        0.0815
     15 CL        140.2422  142.8139  167.3087 Cl      1  UNL1       -0.0801
     16 C         138.7383  137.6760  162.6245 C.3     1  UNL1        0.0173
     17 C         138.5700  140.7350  159.3284 C.3     1  UNL1        0.0730
     18 C         137.9360  141.0273  160.6560 C.3     1  UNL1        0.0196
     19 C         137.9921  140.0076  161.7547 C.3     1  UNL1        0.0017
     20 C         138.6822  138.6957  161.5258 C.3     1  UNL1        0.0015
     21 C         139.3162  138.4034  160.1982 C.3     1  UNL1        0.0017
     22 C         139.2601  139.4231  159.0995 C.3     1  UNL1        0.0196
     23 C         136.3362  142.5877  155.0182 C.3     1  UNL1        0.1165
     24 N         137.3970  142.6811  156.0747 N.am    1  UNL1       -0.2607
     25 C         138.4017  143.7941  156.0324 C.3     1  UNL1        0.1165
     26 C         137.4531  141.6614  157.1734 C.2     1  UNL1        0.3040
     27 O         136.4484  140.5484  157.2156 O.2     1  UNL1       -0.2526
     28 N         138.5139  141.7547  158.2298 N.am    1  UNL1       -0.2904
     29 H         139.1733  142.4852  158.2020 H       1  UNL1        0.1509
@<TRIPOS>BOND
     1    23    24    1
     2    24    25    1
     3    24    26   am
     4    26    27    2
     5    26    28   am
     6    17    28    1
     7    17    18    1
     8    18    19    1
     9    19    20    1
    10    20    16    1
    11    16     1    1
    12     1     2    1
    13     2     3    1
    14     3     4    1
    15     4     5    1
    16     5     8    1
    17     8     9   ar
    18     9    10   ar
    19    10    11   ar
    20    11    12   ar
    21    12    13    1
    22    12    14   ar
    23    14    15    1
    24     5     6    1
    25     6     7    1
    26    20    21    1
    27    21    22    1
    28    22    17    1
    29     7     2    1
    30    14     8   ar
    31    28    29    1
@<TRIPOS>MOLECULE
*****
 29 31 0 0 0
SMALL
GASTEIGER

@<TRIPOS>ATOM
      1 C         138.8907  138.4826  162.0824 C.3     1  UNL1        0.0722
      2 N         139.8417  138.4066  160.9249 N.3     1  UNL1       -0.2698
      3 C         139.3328  138.5745  159.5238 C.3     1  UNL1        0.0938
      4 C         140.2839  138.4985  158.3664 C.3     1  UNL1        0.1081
      5 N         141.7438  138.2546  158.6100 N.pl3   1  UNL1       -0.3040
      6 C         142.2526  138.0867  160.0110 C.3     1  UNL1        0.1081
      7 C         141.3015  138.1627  161.1684 C.3     1  UNL1        0.0938
      8 C         142.6948  138.1786  157.4525 C.ar    1  UNL1        0.0594
      9 C         142.9852  136.8565  156.8060 C.ar    1  UNL1        0.0154
     10 C         143.9362  136.7805  155.6485 C.ar    1  UNL1        0.0022
     11 C         144.5969  138.0265  155.1375 C.ar    1  UNL1        0.0123
     12 C         144.3064  139.3485  155.7840 C.ar    1  UNL1        0.0694
     13 CL        144.9670  140.5945  155.2730 Cl      1  UNL1       -0.0813
     14 C         143.3554  139.4245  156.9415 C.ar    1  UNL1        0.0815
     15 CL        143.0650  140.7465  157.5880 Cl      1  UNL1       -0.0801
     16 C         139.1391  137.6609  163.3124 C.3     1  UNL1        0.0173
     17 C         139.9633  139.6885  167.2443 C.3     1  UNL1        0.0730
     18 C         138.5761  139.2201  166.9183 C.3     1  UNL1        0.0196
     19 C         138.3014  138.5442  165.6076 C.3     1  UNL1        0.0017
     20 C         139.4138  138.3368  164.6230 C.3     1  UNL1        0.0015
     21 C         140.8010  138.8052  164.9491 C.3     1  UNL1        0.0017
     22 C         141.0757  139.4811  166.2597 C.3     1  UNL1        0.0196
     23 C         140.7616  144.0273  169.9897 C.3     1  UNL1        0.1165
     24 N         140.6372  142.5337  169.9277 N.am    1  UNL1       -0.2607
     25 C         140.7875  141.7161  171.1762 C.3     1  UNL1        0.1165
     26 C         140.3625  141.8579  168.6170 C.2     1  UNL1        0.3040
     27 O         140.2122  142.6756  167.3685 O.2     1  UNL1       -0.2526
     28 N         140.2380  140.3644  168.5549 N.am    1  UNL1       -0.2904
     29 H         140.3366  139.8277  169.3744 H       1  UNL1        0.1509
@<TRIPOS>BOND
     1    23    24    1
     2    24    25    1
     3    24    26   am
     4    26    27    2
     5    26    28   am
     6    17    28    1
     7    17    18    1
     8    18    19    1
     9    19    20    1
    10    20    16    1
    11    16     1    1
    12     1     2    1
    13     2     3    1
    14     3     4    1
    15     4     5    1
    16     5     8    1
    17     8     9   ar
    18     9    10   ar
    19    10    11   ar
    20    11    12   ar
    21    12    13    1
    22    12    14   ar
    23    14    15    1
    24     5     6    1
    25     6     7    1
    26    20    21    1
    27    21    22    1
    28    22    17    1
    29     7     2    1
    30    14     8   ar
    31    28    29    1
@<TRIPOS>MOLECULE
*****
 29 31 0 0 0
SMALL
GASTEIGER

@<TRIPOS>ATOM
      1 C         139.8747  137.6447  163.2783 C.3     1  UNL1        0.0722
      2 N         140.0199  138.3743  164.5807 N.3     1  UNL1       -0.2698
      3 C         141.3821  138.7595  165.0769 C.3     1  UNL1        0.0938
      4 C         141.5273  139.4892  166.3793 C.3     1  UNL1        0.1081
      5 N         140.3103  139.8337  167.1857 N.pl3   1  UNL1       -0.3040
      6 C         138.9481  139.4485  166.6896 C.3     1  UNL1        0.1081
      7 C         138.8030  138.7188  165.3871 C.3     1  UNL1        0.0938
      8 C         140.4555  140.5634  168.4882 C.ar    1  UNL1        0.0594
      9 C         140.6485  139.7941  169.7614 C.ar    1  UNL1        0.0154
     10 C         140.7937  140.5237  171.0639 C.ar    1  UNL1        0.0022
     11 C         140.7458  142.0227  171.0932 C.ar    1  UNL1        0.0123
     12 C         140.5528  142.7920  169.8201 C.ar    1  UNL1        0.0694
     13 CL        140.5049  144.2909  169.8494 Cl      1  UNL1       -0.0813
     14 C         140.4076  142.0623  168.5176 C.ar    1  UNL1        0.0815
     15 CL        140.2145  142.8315  167.2444 Cl      1  UNL1       -0.0801
     16 C         138.7884  138.0314  162.3189 C.3     1  UNL1        0.0173
     17 C         139.5975  141.0882  159.1171 C.3     1  UNL1        0.0730
     18 C         140.7311  140.5324  159.9271 C.3     1  UNL1        0.0196
     19 C         140.4614  139.5135  160.9943 C.3     1  UNL1        0.0017
     20 C         139.0581  139.0503  161.2517 C.3     1  UNL1        0.0015
     21 C         137.9245  139.6061  160.4417 C.3     1  UNL1        0.0017
     22 C         138.1942  140.6250  159.3744 C.3     1  UNL1        0.0196
     23 C         140.0515  146.0508  157.6451 C.3     1  UNL1        0.1165
     24 N         140.0942  144.5884  157.3138 N.am    1  UNL1       -0.2607
     25 C         140.4065  144.1450  155.9153 C.3     1  UNL1        0.1165
     26 C         139.8245  143.5694  158.3811 C.2     1  UNL1        0.3040
     27 O         139.5122  144.0129  159.7796 O.2     1  UNL1       -0.2526
     28 N         139.8671  142.1071  158.0499 N.am    1  UNL1       -0.2904
     29 H         140.0721  141.8161  157.1320 H       1  UNL1        0.1509
@<TRIPOS>BOND
     1    23    24    1
     2    24    25    1
     3    24    26   am
     4    26    27    2
     5    26    28   am
     6    17    28    1
     7    17    18    1
     8    18    19    1
     9    19    20    1
    10    20    16    1
    11    16     1    1
    12     1     2    1
    13     2     3    1
    14     3     4    1
    15     4     5    1
    16     5     8    1
    17     8     9   ar
    18     9    10   ar
    19    10    11   ar
    20    11    12   ar
    21    12    13    1
    22    12    14   ar
    23    14    15    1
    24     5     6    1
    25     6     7    1
    26    20    21    1
    27    21    22    1
    28    22    17    1
    29     7     2    1
    30    14     8   ar
    31    28    29    1
@<TRIPOS>MOLECULE
*****
 29 31 0 0 0
SMALL
GASTEIGER

@<TRIPOS>ATOM
      1 C         138.1992  138.3152  162.2759 C.3     1  UNL1        0.0722
      2 N         138.6292  139.5406  161.5253 N.3     1  UNL1       -0.2698
      3 C         137.8799  140.8284  161.6997 C.3     1  UNL1        0.0938
      4 C         138.3098  142.0538  160.9491 C.3     1  UNL1        0.1081
      5 N         139.4891  141.9915  160.0241 N.pl3   1  UNL1       -0.3040
      6 C         140.2384  140.7039  159.8498 C.3     1  UNL1        0.1081
      7 C         139.8084  139.4784  160.6004 C.3     1  UNL1        0.0938
      8 C         139.9191  143.2170  159.2736 C.ar    1  UNL1        0.0594
      9 C         140.8808  144.1820  159.9012 C.ar    1  UNL1        0.0154
     10 C         141.3108  145.4075  159.1506 C.ar    1  UNL1        0.0022
     11 C         140.7790  145.6679  157.7724 C.ar    1  UNL1        0.0123
     12 C         139.8174  144.7029  157.1448 C.ar    1  UNL1        0.0694
     13 CL        139.2857  144.9634  155.7666 Cl      1  UNL1       -0.0813
     14 C         139.3874  143.4775  157.8954 C.ar    1  UNL1        0.0815
     15 CL        138.4257  142.5125  157.2678 Cl      1  UNL1       -0.0801
     16 C         139.1362  137.6653  163.2504 C.3     1  UNL1        0.0173
     17 C         140.0373  139.6639  167.1802 C.3     1  UNL1        0.0730
     18 C         138.6331  139.2490  166.8544 C.3     1  UNL1        0.0196
     19 C         138.3328  138.5828  165.5445 C.3     1  UNL1        0.0017
     20 C         139.4365  138.3315  164.5604 C.3     1  UNL1        0.0015
     21 C         140.8407  138.7464  164.8862 C.3     1  UNL1        0.0017
     22 C         141.1410  139.4126  166.1961 C.3     1  UNL1        0.0196
     23 C         140.7222  143.9901  169.9759 C.3     1  UNL1        0.1165
     24 N         140.6801  142.4932  169.8880 N.am    1  UNL1       -0.2607
     25 C         140.9383  141.6626  171.1100 C.3     1  UNL1        0.1165
     26 C         140.3797  141.8270  168.5781 C.2     1  UNL1        0.3040
     27 O         140.1215  142.6576  167.3560 O.2     1  UNL1       -0.2526
     28 N         140.3376  140.3302  168.4902 N.am    1  UNL1       -0.2904
     29 H         140.5071  139.7850  169.2922 H       1  UNL1        0.1509
@<TRIPOS>BOND
     1    23    24    1
     2    24    25    1
     3    24    26   am
     4    26    27    2
     5    26    28   am
     6    17    28    1
     7    17    18    1
     8    18    19    1
     9    19    20    1
    10    20    16    1
    11    16     1    1
    12     1     2    1
    13     2     3    1
    14     3     4    1
    15     4     5    1
    16     5     8    1
    17     8     9   ar
    18     9    10   ar
    19    10    11   ar
    20    11    12   ar
    21    12    13    1
    22    12    14   ar
    23    14    15    1
    24     5     6    1
    25     6     7    1
    26    20    21    1
    27    21    22    1
    28    22    17    1
    29     7     2    1
    30    14     8   ar
    31    28    29    1
@<TRIPOS>MOLECULE
*****
 29 31 0 0 0
SMALL
GASTEIGER

@<TRIPOS>ATOM
      1 C         140.0092  145.6913  161.2501 C.3     1  UNL1        0.0722
      2 N         139.9110  144.7163  162.3857 N.3     1  UNL1       -0.2698
      3 C         138.7798  144.8178  163.3656 C.3     1  UNL1        0.0938
      4 C         138.6815  143.8427  164.5013 C.3     1  UNL1        0.1081
      5 N         139.7145  142.7662  164.6569 N.pl3   1  UNL1       -0.3040
      6 C         140.8456  142.6647  163.6770 C.3     1  UNL1        0.1081
      7 C         140.9438  143.6398  162.5414 C.3     1  UNL1        0.0938
      8 C         139.6162  141.7911  165.7925 C.ar    1  UNL1        0.0594
      9 C         140.3352  142.0647  167.0803 C.ar    1  UNL1        0.0154
     10 C         140.2370  141.0896  168.2159 C.ar    1  UNL1        0.0022
     11 C         139.4197  139.8410  168.0638 C.ar    1  UNL1        0.0123
     12 C         138.7008  139.5674  166.7760 C.ar    1  UNL1        0.0694
     13 CL        137.8836  138.3188  166.6239 Cl      1  UNL1       -0.0813
     14 C         138.7991  140.5425  165.6404 C.ar    1  UNL1        0.0815
     15 CL        138.0801  140.2690  164.3527 Cl      1  UNL1       -0.0801
     16 C         141.0273  145.4828  160.1685 C.3     1  UNL1        0.0173
     17 C         139.7197  144.1477  156.0749 C.3     1  UNL1        0.0730
     18 C         140.3929  145.4765  156.2509 C.3     1  UNL1        0.0196
     19 C         140.8287  145.9216  157.6154 C.3     1  UNL1        0.0017
     20 C         140.5914  145.0378  158.8039 C.3     1  UNL1        0.0015
     21 C         139.9183  143.7089  158.6279 C.3     1  UNL1        0.0017
     22 C         139.4824  143.2639  157.2633 C.3     1  UNL1        0.0196
     23 C         136.0011  143.6418  152.4809 C.3     1  UNL1        0.1165
     24 N         137.4246  143.4497  152.9133 N.am    1  UNL1       -0.2607
     25 C         138.4121  142.8126  151.9812 C.3     1  UNL1        0.1165
     26 C         137.8605  143.8947  154.2779 C.2     1  UNL1        0.3040
     27 O         136.8729  144.5319  155.2100 O.2     1  UNL1       -0.2526
     28 N         139.2839  143.7027  154.7103 N.am    1  UNL1       -0.2904
     29 H         139.9320  143.2845  154.0985 H       1  UNL1        0.1509
@<TRIPOS>BOND
     1    23    24    1
     2    24    25    1
     3    24    26   am
     4    26    27    2
     5    26    28   am
     6    17    28    1
     7    17    18    1
     8    18    19    1
     9    19    20    1
    10    20    16    1
    11    16     1    1
    12     1     2    1
    13     2     3    1
    14     3     4    1
    15     4     5    1
    16     5     8    1
    17     8     9   ar
    18     9    10   ar
    19    10    11   ar
    20    11    12   ar
    21    12    13    1
    22    12    14   ar
    23    14    15    1
    24     5     6    1
    25     6     7    1
    26    20    21    1
    27    21    22    1
    28    22    17    1
    29     7     2    1
    30    14     8   ar
    31    28    29    1
@<TRIPOS>MOLECULE
*****
 29 31 0 0 0
SMALL
GASTEIGER

@<TRIPOS>ATOM
      1 C         142.8931  137.7661  155.3590 C.3     1  UNL1        0.0722
      2 N         142.0571  138.1115  156.5556 N.3     1  UNL1       -0.2698
      3 C         142.7176  138.4640  157.8555 C.3     1  UNL1        0.0938
      4 C         141.8816  138.8094  159.0520 C.3     1  UNL1        0.1081
      5 N         140.3851  138.8023  158.9487 N.pl3   1  UNL1       -0.3040
      6 C         139.7247  138.4498  157.6489 C.3     1  UNL1        0.1081
      7 C         140.5607  138.1044  156.4523 C.3     1  UNL1        0.0938
      8 C         139.5491  139.1477  160.1453 C.ar    1  UNL1        0.0594
      9 C         139.1004  138.0670  161.0839 C.ar    1  UNL1        0.0154
     10 C         138.2644  138.4124  162.2805 C.ar    1  UNL1        0.0022
     11 C         137.8770  139.8384  162.5384 C.ar    1  UNL1        0.0123
     12 C         138.3256  140.9190  161.5998 C.ar    1  UNL1        0.0694
     13 CL        137.9383  142.3449  161.8577 Cl      1  UNL1       -0.0813
     14 C         139.1617  140.5736  160.4032 C.ar    1  UNL1        0.0815
     15 CL        139.6103  141.6542  159.4646 Cl      1  UNL1       -0.0801
     16 C         142.6707  136.4701  154.6375 C.3     1  UNL1        0.0173
     17 C         143.0255  132.5705  156.8551 C.3     1  UNL1        0.0730
     18 C         141.9922  132.7304  155.7795 C.3     1  UNL1        0.0196
     19 C         141.8740  134.0302  155.0403 C.3     1  UNL1        0.0017
     20 C         142.7889  135.1702  155.3767 C.3     1  UNL1        0.0015
     21 C         143.8221  135.0104  156.4523 C.3     1  UNL1        0.0017
     22 C         143.9404  133.7106  157.1915 C.3     1  UNL1        0.0196
     23 C         145.0651  127.8114  157.2915 C.3     1  UNL1        0.1165
     24 N         144.1635  128.8911  157.8126 N.am    1  UNL1       -0.2607
     25 C         143.3803  128.6710  159.0727 C.3     1  UNL1        0.1165
     26 C         144.0452  130.1910  157.0734 C.2     1  UNL1        0.3040
     27 O         144.8285  130.4110  155.8131 O.2     1  UNL1       -0.2526
     28 N         143.1437  131.2707  157.5943 N.am    1  UNL1       -0.2904
     29 H         142.6296  131.1262  158.4214 H       1  UNL1        0.1509
@<TRIPOS>BOND
     1    23    24    1
     2    24    25    1
     3    24    26   am
     4    26    27    2
     5    26    28   am
     6    17    28    1
     7    17    18    1
     8    18    19    1
     9    19    20    1
    10    20    16    1
    11    16     1    1
    12     1     2    1
    13     2     3    1
    14     3     4    1
    15     4     5    1
    16     5     8    1
    17     8     9   ar
    18     9    10   ar
    19    10    11   ar
    20    11    12   ar
    21    12    13    1
    22    12    14   ar
    23    14    15    1
    24     5     6    1
    25     6     7    1
    26    20    21    1
    27    21    22    1
    28    22    17    1
    29     7     2    1
    30    14     8   ar
    31    28    29    1
@<TRIPOS>MOLECULE
*****
 29 31 0 0 0
SMALL
GASTEIGER

@<TRIPOS>ATOM
      1 C         142.1498  138.2333  157.9626 C.3     1  UNL1        0.0722
      2 N         141.5813  138.3664  159.3443 N.3     1  UNL1       -0.2698
      3 C         142.4130  137.9959  160.5364 C.3     1  UNL1        0.0938
      4 C         141.8445  138.1290  161.9181 C.3     1  UNL1        0.1081
      5 N         140.4443  138.6324  162.1077 N.pl3   1  UNL1       -0.3040
      6 C         139.6126  139.0028  160.9156 C.3     1  UNL1        0.1081
      7 C         140.1811  138.8698  159.5339 C.3     1  UNL1        0.0938
      8 C         139.8757  138.7655  163.4894 C.ar    1  UNL1        0.0594
      9 C         139.1143  137.6264  164.1000 C.ar    1  UNL1        0.0154
     10 C         138.5458  137.7595  165.4817 C.ar    1  UNL1        0.0022
     11 C         138.7387  139.0316  166.2528 C.ar    1  UNL1        0.0123
     12 C         139.5002  140.1706  165.6422 C.ar    1  UNL1        0.0694
     13 CL        139.6931  141.4426  166.4133 Cl      1  UNL1       -0.0813
     14 C         140.0687  140.0375  164.2605 C.ar    1  UNL1        0.0815
     15 CL        140.8301  141.1765  163.6499 Cl      1  UNL1       -0.0801
     16 C         141.3831  137.4978  156.9038 C.3     1  UNL1        0.0173
     17 C         142.9313  133.5825  155.3151 C.3     1  UNL1        0.0730
     18 C         141.6061  134.1092  154.8501 C.3     1  UNL1        0.0196
     19 C         141.0900  135.4143  155.3796 C.3     1  UNL1        0.0017
     20 C         141.8992  136.1927  156.3742 C.3     1  UNL1        0.0015
     21 C         143.2244  135.6661  156.8392 C.3     1  UNL1        0.0017
     22 C         143.7405  134.3610  156.3096 C.3     1  UNL1        0.0196
     23 C         143.9941  128.5451  156.0188 C.3     1  UNL1        0.1165
     24 N         143.9788  129.7588  155.1374 N.am    1  UNL1       -0.2607
     25 C         144.4796  129.6673  153.7264 C.3     1  UNL1        0.1165
     26 C         143.4627  131.0639  155.6669 C.2     1  UNL1        0.3040
     27 O         142.9619  131.1553  157.0779 O.2     1  UNL1       -0.2526
     28 N         143.4474  132.2775  154.7855 N.am    1  UNL1       -0.2904
     29 H         143.7761  132.2174  153.8595 H       1  UNL1        0.1509
@<TRIPOS>BOND
     1    23    24    1
     2    24    25    1
     3    24    26   am
     4    26    27    2
     5    26    28   am
     6    17    28    1
     7    17    18    1
     8    18    19    1
     9    19    20    1
    10    20    16    1
    11    16     1    1
    12     1     2    1
    13     2     3    1
    14     3     4    1
    15     4     5    1
    16     5     8    1
    17     8     9   ar
    18     9    10   ar
    19    10    11   ar
    20    11    12   ar
    21    12    13    1
    22    12    14   ar
    23    14    15    1
    24     5     6    1
    25     6     7    1
    26    20    21    1
    27    21    22    1
    28    22    17    1
    29     7     2    1
    30    14     8   ar
    31    28    29    1
@<TRIPOS>MOLECULE
*****
 29 31 0 0 0
SMALL
GASTEIGER

@<TRIPOS>ATOM
      1 C         141.6599  137.8722  157.6139 C.3     1  UNL1        0.0722
      2 N         142.1972  138.6974  158.7455 N.3     1  UNL1       -0.2698
      3 C         143.2361  139.7466  158.4812 C.3     1  UNL1        0.0938
      4 C         143.7734  140.5718  159.6128 C.3     1  UNL1        0.1081
      5 N         143.2717  140.3478  161.0086 N.pl3   1  UNL1       -0.3040
      6 C         142.2328  139.2986  161.2728 C.3     1  UNL1        0.1081
      7 C         141.6955  138.4734  160.1412 C.3     1  UNL1        0.0938
      8 C         143.8090  141.1730  162.1401 C.ar    1  UNL1        0.0594
      9 C         144.9984  140.6942  162.9188 C.ar    1  UNL1        0.0154
     10 C         145.5356  141.5194  164.0503 C.ar    1  UNL1        0.0022
     11 C         144.8835  142.8234  164.4032 C.ar    1  UNL1        0.0123
     12 C         143.6942  143.3021  163.6246 C.ar    1  UNL1        0.0694
     13 CL        143.0421  144.6060  163.9775 Cl      1  UNL1       -0.0813
     14 C         143.1569  142.4769  162.4931 C.ar    1  UNL1        0.0815
     15 CL        141.9676  142.9556  161.7144 Cl      1  UNL1       -0.0801
     16 C         142.6039  137.1704  156.6833 C.3     1  UNL1        0.0173
     17 C         142.6502  132.6746  156.4942 C.3     1  UNL1        0.0730
     18 C         143.4848  133.3910  157.5141 C.3     1  UNL1        0.0196
     19 C         143.4694  134.8896  157.5771 C.3     1  UNL1        0.0017
     20 C         142.6194  135.6718  156.6203 C.3     1  UNL1        0.0015
     21 C         141.7848  134.9554  155.6004 C.3     1  UNL1        0.0017
     22 C         141.8002  133.4568  155.5374 C.3     1  UNL1        0.0196
     23 C         145.1773  128.2367  155.5352 C.3     1  UNL1        0.1165
     24 N         143.9291  128.9570  155.9517 N.am    1  UNL1       -0.2607
     25 C         142.6965  128.1788  156.3051 C.3     1  UNL1        0.1165
     26 C         143.9137  130.4556  156.0147 C.2     1  UNL1        0.3040
     27 O         145.1464  131.2339  155.6613 O.2     1  UNL1       -0.2526
     28 N         142.6657  131.1760  156.4312 N.am    1  UNL1       -0.2904
     29 H         141.8567  130.6652  156.6631 H       1  UNL1        0.1509
@<TRIPOS>BOND
     1    23    24    1
     2    24    25    1
     3    24    26   am
     4    26    27    2
     5    26    28   am
     6    17    28    1
     7    17    18    1
     8    18    19    1
     9    19    20    1
    10    20    16    1
    11    16     1    1
    12     1     2    1
    13     2     3    1
    14     3     4    1
    15     4     5    1
    16     5     8    1
    17     8     9   ar
    18     9    10   ar
    19    10    11   ar
    20    11    12   ar
    21    12    13    1
    22    12    14   ar
    23    14    15    1
    24     5     6    1
    25     6     7    1
    26    20    21    1
    27    21    22    1
    28    22    17    1
    29     7     2    1
    30    14     8   ar
    31    28    29    1
@<TRIPOS>MOLECULE
*****
 29 31 0 0 0
SMALL
GASTEIGER

@<TRIPOS>ATOM
      1 C         138.6078  138.1326  161.7993 C.3     1  UNL1        0.0722
      2 N         139.7398  138.7612  161.0420 N.3     1  UNL1       -0.2698
      3 C         141.1168  138.1722  161.1260 C.3     1  UNL1        0.0938
      4 C         142.2488  138.8009  160.3687 C.3     1  UNL1        0.1081
      5 N         142.0037  140.0184  159.5275 N.pl3   1  UNL1       -0.3040
      6 C         140.6267  140.6072  159.4435 C.3     1  UNL1        0.1081
      7 C         139.4948  139.9786  160.2008 C.3     1  UNL1        0.0938
      8 C         143.1357  140.6470  158.7702 C.ar    1  UNL1        0.0594
      9 C         143.7419  141.9303  159.2559 C.ar    1  UNL1        0.0154
     10 C         144.8739  142.5589  158.4986 C.ar    1  UNL1        0.0022
     11 C         145.3997  141.9042  157.2556 C.ar    1  UNL1        0.0123
     12 C         144.7935  140.6210  156.7700 C.ar    1  UNL1        0.0694
     13 CL        145.3194  139.9664  155.5270 Cl      1  UNL1       -0.0813
     14 C         143.6615  139.9924  157.5273 C.ar    1  UNL1        0.0815
     15 CL        143.0554  138.7092  157.0416 Cl      1  UNL1       -0.0801
     16 C         138.8400  137.5824  163.1753 C.3     1  UNL1        0.0173
     17 C         140.5020  140.2350  166.4082 C.3     1  UNL1        0.0730
     18 C         141.3329  139.1149  165.8561 C.3     1  UNL1        0.0196
     19 C         140.7789  138.2307  164.7785 C.3     1  UNL1        0.0017
     20 C         139.3940  138.4666  164.2529 C.3     1  UNL1        0.0015
     21 C         138.5631  139.5867  164.8050 C.3     1  UNL1        0.0017
     22 C         139.1171  140.4709  165.8827 C.3     1  UNL1        0.0196
     23 C         140.9169  141.4821  171.4354 C.3     1  UNL1        0.1165
     24 N         141.2635  141.7428  169.9994 N.am    1  UNL1       -0.2607
     25 C         142.1640  142.8876  169.6411 C.3     1  UNL1        0.1165
     26 C         140.7095  140.8586  168.9218 C.2     1  UNL1        0.3040
     27 O         139.8089  139.7137  169.2801 O.2     1  UNL1       -0.2526
     28 N         141.0560  141.1192  167.4858 N.am    1  UNL1       -0.2904
     29 H         141.6471  141.8706  167.2506 H       1  UNL1        0.1509
@<TRIPOS>BOND
     1    23    24    1
     2    24    25    1
     3    24    26   am
     4    26    27    2
     5    26    28   am
     6    17    28    1
     7    17    18    1
     8    18    19    1
     9    19    20    1
    10    20    16    1
    11    16     1    1
    12     1     2    1
    13     2     3    1
    14     3     4    1
    15     4     5    1
    16     5     8    1
    17     8     9   ar
    18     9    10   ar
    19    10    11   ar
    20    11    12   ar
    21    12    13    1
    22    12    14   ar
    23    14    15    1
    24     5     6    1
    25     6     7    1
    26    20    21    1
    27    21    22    1
    28    22    17    1
    29     7     2    1
    30    14     8   ar
    31    28    29    1
