@<TRIPOS>MOLECULE
*****
 34 38 0 0 0
SMALL
GASTEIGER

@<TRIPOS>ATOM
      1 C         139.9012  140.4459  166.1061 C.ar    1  UNL1        0.0206
      2 C         139.0043  139.2641  165.8848 C.ar    1  UNL1        0.0013
      3 C         138.9681  138.5905  164.5450 C.ar    1  UNL1       -0.0045
      4 C         139.8289  139.0987  163.4265 C.ar    1  UNL1       -0.0247
      5 C         140.7257  140.2805  163.6479 C.ar    1  UNL1       -0.0246
      6 C         140.7619  140.9541  164.9876 C.ar    1  UNL1       -0.0029
      7 C         141.6571  140.9427  162.6762 C.3     1  UNL1        0.0433
      8 C         141.9216  140.5866  161.2433 C.3     1  UNL1        0.0768
      9 N         141.3202  139.4804  160.4282 N.3     1  UNL1       -0.2720
     10 C         140.3056  138.4570  160.8446 C.3     1  UNL1        0.0768
     11 C         139.6419  138.2872  162.1790 C.3     1  UNL1        0.0433
     12 C         140.5827  144.0637  169.8913 C.3     1  UNL1        0.0754
     13 C         140.2505  142.7824  169.1857 C.ar    1  UNL1        0.1548
     14 C         140.3755  142.5290  167.7125 C.ar    1  UNL1        0.0580
     15 C         139.9373  141.1195  167.4458 C.ar    1  UNL1        0.1227
     16 N         139.5414  140.5018  168.7542 N.ar    1  UNL1       -0.0774
     17 O         139.7350  141.5295  169.8294 O.2     1  UNL1       -0.3578
     18 C         141.7962  139.3849  159.0090 C.3     1  UNL1        0.0730
     19 C         140.8424  138.9826  157.9233 C.3     1  UNL1        0.0294
     20 C         140.3238  140.0105  156.9617 C.3     1  UNL1        0.0666
     21 S         139.0079  140.6824  157.2197 S.3     1  UNL1       -0.0756
     22 C         138.5097  140.8411  158.6257 C.ar    1  UNL1        0.1932
     23 N         137.5230  139.9478  159.3175 N.ar    1  UNL1       -0.1221
     24 N         137.3141  140.4755  160.7060 N.ar    1  UNL1       -0.1282
     25 C         138.1718  141.6948  160.8723 C.ar    1  UNL1        0.1668
     26 N         138.9107  141.9208  159.5866 N.ar    1  UNL1       -0.2884
     27 C         139.8803  143.0314  159.3104 C.3     1  UNL1        0.1340
     28 C         138.2729  142.5398  162.1075 C.ar    1  UNL1        0.0360
     29 C         139.1363  143.7664  162.1085 C.ar    1  UNL1        0.0039
     30 C         139.2373  144.6115  163.3437 C.ar    1  UNL1        0.0115
     31 C         138.4750  144.2300  164.5779 C.ar    1  UNL1        0.0577
     32 CL        138.5761  145.0750  165.8131 Cl      1  UNL1       -0.0822
     33 C         137.6116  143.0034  164.5769 C.ar    1  UNL1        0.0115
     34 C         137.5106  142.1583  163.3417 C.ar    1  UNL1        0.0039
@<TRIPOS>BOND
     1    12    13    1
     2    13    14   ar
     3    14    15   ar
     4    15     1    1
     5     1     2   ar
     6     2     3   ar
     7     3     4   ar
     8     4     5   ar
     9     5     6   ar
    10     5     7    1
    11     7     8    1
    12     8     9    1
    13     9    18    1
    14    18    19    1
    15    19    20    1
    16    20    21    1
    17    21    22    1
    18    22    23   ar
    19    23    24   ar
    20    24    25   ar
    21    25    28    1
    22    28    29   ar
    23    29    30   ar
    24    30    31   ar
    25    31    32    1
    26    31    33   ar
    27    33    34   ar
    28    25    26   ar
    29    26    27    1
    30     9    10    1
    31    10    11    1
    32    15    16   ar
    33    16    17   ar
    34    17    13   ar
    35     6     1   ar
    36    26    22   ar
    37    11     4    1
    38    34    28   ar
@<TRIPOS>MOLECULE
*****
 34 38 0 0 0
SMALL
GASTEIGER

@<TRIPOS>ATOM
      1 C         139.4095  140.0473  166.4451 C.ar    1  UNL1        0.0206
      2 C         139.7219  138.7399  165.7795 C.ar    1  UNL1        0.0013
      3 C         139.6714  138.6285  164.2844 C.ar    1  UNL1       -0.0045
      4 C         139.3083  139.8246  163.4551 C.ar    1  UNL1       -0.0247
      5 C         138.9959  141.1318  164.1207 C.ar    1  UNL1       -0.0246
      6 C         139.0464  141.2433  165.6157 C.ar    1  UNL1       -0.0029
      7 C         138.6144  142.4366  163.4866 C.3     1  UNL1        0.0433
      8 C         138.4511  142.7562  162.0301 C.3     1  UNL1        0.0768
      9 N         138.6290  141.8500  160.8482 N.3     1  UNL1       -0.2720
     10 C         139.0142  140.4003  160.8307 C.3     1  UNL1        0.0768
     11 C         139.3165  139.4989  161.9909 C.3     1  UNL1        0.0433
     12 C         140.9449  141.3047  171.3381 C.3     1  UNL1        0.0754
     13 C         140.1658  140.7366  170.1892 C.ar    1  UNL1        0.1548
     14 C         140.5059  140.8821  168.7355 C.ar    1  UNL1        0.0580
     15 C         139.4600  140.1587  167.9401 C.ar    1  UNL1        0.1227
     16 N         138.4734  139.5661  168.9022 N.ar    1  UNL1       -0.0774
     17 O         138.9097  139.9233  170.2922 O.2     1  UNL1       -0.3578
     18 C         138.3903  142.4761  159.5062 C.3     1  UNL1        0.0730
     19 C         139.5428  143.0266  158.7196 C.3     1  UNL1        0.0294
     20 C         140.0909  144.3849  159.0429 C.3     1  UNL1        0.0666
     21 S         141.4518  144.5172  159.6595 S.3     1  UNL1       -0.0756
     22 C         141.6822  144.0674  161.0718 C.ar    1  UNL1        0.1932
     23 N         141.5208  144.9094  162.3027 N.ar    1  UNL1       -0.1221
     24 N         141.8533  144.0591  163.4929 N.ar    1  UNL1       -0.1282
     25 C         142.2202  142.6916  162.9975 C.ar    1  UNL1        0.1668
     26 N         142.1145  142.6968  161.5012 N.ar    1  UNL1       -0.2884
     27 C         142.3923  141.5352  160.5937 C.3     1  UNL1        0.1340
     28 C         142.6223  141.5240  163.8489 C.ar    1  UNL1        0.0360
     29 C         142.9742  140.2143  163.2080 C.ar    1  UNL1        0.0039
     30 C         143.3763  139.0466  164.0594 C.ar    1  UNL1        0.0115
     31 C         143.4265  139.1886  165.5518 C.ar    1  UNL1        0.0577
     32 CL        143.8286  138.0210  166.4032 Cl      1  UNL1       -0.0822
     33 C         143.0746  140.4983  166.1927 C.ar    1  UNL1        0.0115
     34 C         142.6726  141.6660  165.3413 C.ar    1  UNL1        0.0039
@<TRIPOS>BOND
     1    12    13    1
     2    13    14   ar
     3    14    15   ar
     4    15     1    1
     5     1     2   ar
     6     2     3   ar
     7     3     4   ar
     8     4     5   ar
     9     5     6   ar
    10     5     7    1
    11     7     8    1
    12     8     9    1
    13     9    18    1
    14    18    19    1
    15    19    20    1
    16    20    21    1
    17    21    22    1
    18    22    23   ar
    19    23    24   ar
    20    24    25   ar
    21    25    28    1
    22    28    29   ar
    23    29    30   ar
    24    30    31   ar
    25    31    32    1
    26    31    33   ar
    27    33    34   ar
    28    25    26   ar
    29    26    27    1
    30     9    10    1
    31    10    11    1
    32    15    16   ar
    33    16    17   ar
    34    17    13   ar
    35     6     1   ar
    36    26    22   ar
    37    11     4    1
    38    34    28   ar
@<TRIPOS>MOLECULE
*****
 34 38 0 0 0
SMALL
GASTEIGER

@<TRIPOS>ATOM
      1 C         139.7519  139.6096  166.7558 C.ar    1  UNL1        0.0206
      2 C         138.4819  139.4394  165.9760 C.ar    1  UNL1        0.0013
      3 C         138.5364  139.0308  164.5337 C.ar    1  UNL1       -0.0045
      4 C         139.8610  138.7924  163.8713 C.ar    1  UNL1       -0.0247
      5 C         141.1309  138.9626  164.6511 C.ar    1  UNL1       -0.0246
      6 C         141.0764  139.3712  166.0933 C.ar    1  UNL1       -0.0029
      7 C         142.5453  138.7767  164.1873 C.3     1  UNL1        0.0433
      8 C         143.0389  138.3746  162.8291 C.3     1  UNL1        0.0768
      9 N         142.2401  138.0591  161.5994 N.3     1  UNL1       -0.2720
     10 C         140.7504  138.0678  161.4240 C.3     1  UNL1        0.0768
     11 C         139.6916  138.3942  162.4351 C.3     1  UNL1        0.0433
     12 C         140.9289  141.8573  171.3865 C.3     1  UNL1        0.0754
     13 C         140.2383  141.0514  170.3266 C.ar    1  UNL1        0.1548
     14 C         140.6766  140.9127  168.8987 C.ar    1  UNL1        0.0580
     15 C         139.6973  140.0183  168.1980 C.ar    1  UNL1        0.1227
     16 N         138.6538  139.6041  169.1928 N.ar    1  UNL1       -0.0774
     17 O         138.9882  140.2426  170.5083 O.2     1  UNL1       -0.3578
     18 C         143.0363  137.6856  160.3842 C.3     1  UNL1        0.0730
     19 C         142.5220  138.0257  159.0168 C.3     1  UNL1        0.0294
     20 C         143.1113  139.1783  158.2590 C.3     1  UNL1        0.0666
     21 S         142.5313  140.5528  158.4140 S.3     1  UNL1       -0.0756
     22 C         142.5432  141.2251  159.7548 C.ar    1  UNL1        0.1932
     23 N         143.7441  141.4218  160.6318 N.ar    1  UNL1       -0.1221
     24 N         143.2995  142.1370  161.8731 N.ar    1  UNL1       -0.1282
     25 C         141.8237  142.3823  161.7633 C.ar    1  UNL1        0.1668
     26 N         141.3563  141.8187  160.4541 N.ar    1  UNL1       -0.2884
     27 C         139.9491  141.8442  159.9353 C.3     1  UNL1        0.1340
     28 C         140.9660  143.0703  162.7835 C.ar    1  UNL1        0.0360
     29 C         140.4179  144.4381  162.5029 C.ar    1  UNL1        0.0039
     30 C         139.5601  145.1262  163.5231 C.ar    1  UNL1        0.0115
     31 C         139.2504  144.4465  164.8239 C.ar    1  UNL1        0.0577
     32 CL        138.3927  145.1345  165.8441 Cl      1  UNL1       -0.0822
     33 C         139.7985  143.0787  165.1044 C.ar    1  UNL1        0.0115
     34 C         140.6562  142.3906  164.0842 C.ar    1  UNL1        0.0039
@<TRIPOS>BOND
     1    12    13    1
     2    13    14   ar
     3    14    15   ar
     4    15     1    1
     5     1     2   ar
     6     2     3   ar
     7     3     4   ar
     8     4     5   ar
     9     5     6   ar
    10     5     7    1
    11     7     8    1
    12     8     9    1
    13     9    18    1
    14    18    19    1
    15    19    20    1
    16    20    21    1
    17    21    22    1
    18    22    23   ar
    19    23    24   ar
    20    24    25   ar
    21    25    28    1
    22    28    29   ar
    23    29    30   ar
    24    30    31   ar
    25    31    32    1
    26    31    33   ar
    27    33    34   ar
    28    25    26   ar
    29    26    27    1
    30     9    10    1
    31    10    11    1
    32    15    16   ar
    33    16    17   ar
    34    17    13   ar
    35     6     1   ar
    36    26    22   ar
    37    11     4    1
    38    34    28   ar
@<TRIPOS>MOLECULE
*****
 34 38 0 0 0
SMALL
GASTEIGER

@<TRIPOS>ATOM
      1 C         139.6922  141.1514  166.5616 C.ar    1  UNL1        0.0206
      2 C         138.7412  140.3436  165.7290 C.ar    1  UNL1        0.0013
      3 C         138.4200  140.7729  164.3280 C.ar    1  UNL1       -0.0045
      4 C         139.0499  142.0101  163.7598 C.ar    1  UNL1       -0.0247
      5 C         140.0008  142.8177  164.5923 C.ar    1  UNL1       -0.0246
      6 C         140.3220  142.3885  165.9932 C.ar    1  UNL1       -0.0029
      7 C         140.7331  144.0736  164.2226 C.3     1  UNL1        0.0433
      8 C         140.6952  144.8318  162.9288 C.3     1  UNL1        0.0768
      9 N         139.9157  144.5215  161.6855 N.3     1  UNL1       -0.2720
     10 C         138.9816  143.3763  161.4286 C.3     1  UNL1        0.0768
     11 C         138.5962  142.2586  162.3517 C.3     1  UNL1        0.0433
     12 C         142.0976  140.6581  171.2361 C.3     1  UNL1        0.0754
     13 C         141.1189  140.4952  170.1111 C.ar    1  UNL1        0.1548
     14 C         141.1915  141.1719  168.7743 C.ar    1  UNL1        0.0580
     15 C         140.0133  140.7220  167.9625 C.ar    1  UNL1        0.1227
     16 N         139.2124  139.7672  168.7974 N.ar    1  UNL1       -0.0774
     17 O         139.8957  139.6271  170.1253 O.2     1  UNL1       -0.3578
     18 C         140.0939  145.4836  160.5485 C.3     1  UNL1        0.0730
     19 C         140.4311  144.9724  159.1792 C.3     1  UNL1        0.0294
     20 C         141.8626  144.9008  158.7367 C.3     1  UNL1        0.0666
     21 S         142.5596  143.5747  158.6636 S.3     1  UNL1       -0.0756
     22 C         142.1841  142.4767  159.6140 C.ar    1  UNL1        0.1932
     23 N         141.1957  141.3801  159.3483 N.ar    1  UNL1       -0.1221
     24 N         141.1318  140.5081  160.5671 N.ar    1  UNL1       -0.1282
     25 C         142.0808  141.0658  161.5862 C.ar    1  UNL1        0.1668
     26 N         142.7312  142.2824  160.9972 N.ar    1  UNL1       -0.2884
     27 C         143.7497  143.1520  161.6727 C.3     1  UNL1        0.1340
     28 C         142.3348  140.5052  162.9541 C.ar    1  UNL1        0.0360
     29 C         143.2486  141.2245  163.9016 C.ar    1  UNL1        0.0039
     30 C         143.5026  140.6639  165.2695 C.ar    1  UNL1        0.0115
     31 C         142.8430  139.3841  165.6900 C.ar    1  UNL1        0.0577
     32 CL        143.0970  138.8236  167.0579 Cl      1  UNL1       -0.0822
     33 C         141.9292  138.6649  164.7425 C.ar    1  UNL1        0.0115
     34 C         141.6752  139.2254  163.3746 C.ar    1  UNL1        0.0039
@<TRIPOS>BOND
     1    12    13    1
     2    13    14   ar
     3    14    15   ar
     4    15     1    1
     5     1     2   ar
     6     2     3   ar
     7     3     4   ar
     8     4     5   ar
     9     5     6   ar
    10     5     7    1
    11     7     8    1
    12     8     9    1
    13     9    18    1
    14    18    19    1
    15    19    20    1
    16    20    21    1
    17    21    22    1
    18    22    23   ar
    19    23    24   ar
    20    24    25   ar
    21    25    28    1
    22    28    29   ar
    23    29    30   ar
    24    30    31   ar
    25    31    32    1
    26    31    33   ar
    27    33    34   ar
    28    25    26   ar
    29    26    27    1
    30     9    10    1
    31    10    11    1
    32    15    16   ar
    33    16    17   ar
    34    17    13   ar
    35     6     1   ar
    36    26    22   ar
    37    11     4    1
    38    34    28   ar
@<TRIPOS>MOLECULE
*****
 34 38 0 0 0
SMALL
GASTEIGER

@<TRIPOS>ATOM
      1 C         141.4357  142.5198  166.6128 C.ar    1  UNL1        0.0206
      2 C         140.0539  143.0851  166.7585 C.ar    1  UNL1        0.0013
      3 C         139.4228  143.8267  165.6176 C.ar    1  UNL1       -0.0045
      4 C         140.1735  144.0029  164.3309 C.ar    1  UNL1       -0.0247
      5 C         141.5551  143.4376  164.1852 C.ar    1  UNL1       -0.0246
      6 C         142.1863  142.6960  165.3261 C.ar    1  UNL1       -0.0029
      7 C         142.4706  143.4994  162.9985 C.3     1  UNL1        0.0433
      8 C         142.2303  144.1419  161.6644 C.3     1  UNL1        0.0768
      9 N         141.0154  144.8811  161.1877 N.3     1  UNL1       -0.2720
     10 C         139.7406  145.1606  161.9271 C.3     1  UNL1        0.0768
     11 C         139.3659  144.7698  163.3260 C.3     1  UNL1        0.0433
     12 C         142.6095  138.7423  170.1104 C.3     1  UNL1        0.0754
     13 C         142.6063  140.0419  169.3615 C.ar    1  UNL1        0.1548
     14 C         141.7393  140.3793  168.1847 C.ar    1  UNL1        0.0580
     15 C         142.0667  141.7782  167.7537 C.ar    1  UNL1        0.1227
     16 N         143.1361  142.3054  168.6640 N.ar    1  UNL1       -0.0774
     17 O         143.4695  141.2323  169.6576 O.2     1  UNL1       -0.3578
     18 C         141.0844  145.4111  159.7861 C.3     1  UNL1        0.0730
     19 C         140.2253  144.8095  158.7136 C.3     1  UNL1        0.0294
     20 C         140.7661  143.7108  157.8475 C.3     1  UNL1        0.0666
     21 S         140.3389  142.2921  158.0816 S.3     1  UNL1       -0.0756
     22 C         140.6885  141.6063  159.3690 C.ar    1  UNL1        0.1932
     23 N         141.9961  140.9445  159.6887 N.ar    1  UNL1       -0.1221
     24 N         141.9076  140.3911  161.0801 N.ar    1  UNL1       -0.1282
     25 C         140.5453  140.7109  161.6203 C.ar    1  UNL1        0.1668
     26 N         139.7918  141.4620  160.5628 N.ar    1  UNL1       -0.2884
     27 C         138.3882  141.9780  160.6789 C.3     1  UNL1        0.1340
     28 C         140.0274  140.3440  162.9794 C.ar    1  UNL1        0.0360
     29 C         138.6730  140.8161  163.4185 C.ar    1  UNL1        0.0039
     30 C         138.1551  140.4493  164.7776 C.ar    1  UNL1        0.0115
     31 C         138.9915  139.6104  165.6977 C.ar    1  UNL1        0.0577
     32 CL        138.4736  139.2435  167.0567 Cl      1  UNL1       -0.0822
     33 C         140.3459  139.1383  165.2586 C.ar    1  UNL1        0.0115
     34 C         140.8638  139.5051  163.8995 C.ar    1  UNL1        0.0039
@<TRIPOS>BOND
     1    12    13    1
     2    13    14   ar
     3    14    15   ar
     4    15     1    1
     5     1     2   ar
     6     2     3   ar
     7     3     4   ar
     8     4     5   ar
     9     5     6   ar
    10     5     7    1
    11     7     8    1
    12     8     9    1
    13     9    18    1
    14    18    19    1
    15    19    20    1
    16    20    21    1
    17    21    22    1
    18    22    23   ar
    19    23    24   ar
    20    24    25   ar
    21    25    28    1
    22    28    29   ar
    23    29    30   ar
    24    30    31   ar
    25    31    32    1
    26    31    33   ar
    27    33    34   ar
    28    25    26   ar
    29    26    27    1
    30     9    10    1
    31    10    11    1
    32    15    16   ar
    33    16    17   ar
    34    17    13   ar
    35     6     1   ar
    36    26    22   ar
    37    11     4    1
    38    34    28   ar
@<TRIPOS>MOLECULE
*****
 34 38 0 0 0
SMALL
GASTEIGER

@<TRIPOS>ATOM
      1 C         142.7595  140.5330  166.4467 C.ar    1  UNL1        0.0206
      2 C         142.5145  139.0538  166.3993 C.ar    1  UNL1        0.0013
      3 C         142.5586  138.3279  165.0874 C.ar    1  UNL1       -0.0045
      4 C         142.8478  139.0812  163.8228 C.ar    1  UNL1       -0.0247
      5 C         143.0927  140.5602  163.8702 C.ar    1  UNL1       -0.0246
      6 C         143.0486  141.2861  165.1821 C.ar    1  UNL1       -0.0029
      7 C         143.3959  141.4948  162.7368 C.3     1  UNL1        0.0433
      8 C         143.5290  141.1810  161.2759 C.3     1  UNL1        0.0768
      9 N         143.3918  139.8553  160.5879 N.3     1  UNL1       -0.2720
     10 C         143.0876  138.5157  161.1906 C.3     1  UNL1        0.0768
     11 C         142.8455  138.1712  162.6303 C.3     1  UNL1        0.0433
     12 C         141.5376  141.8735  171.4056 C.3     1  UNL1        0.0754
     13 C         142.1537  141.8750  170.0380 C.ar    1  UNL1        0.1548
     14 C         141.8905  140.8750  168.9513 C.ar    1  UNL1        0.0580
     15 C         142.7153  141.2588  167.7586 C.ar    1  UNL1        0.1227
     16 N         143.4882  142.4959  168.1082 N.ar    1  UNL1       -0.0774
     17 O         143.1411  142.8767  169.5169 O.2     1  UNL1       -0.3578
     18 C         143.5842  139.8710  159.1004 C.3     1  UNL1        0.0730
     19 C         142.8641  140.8849  158.2616 C.3     1  UNL1        0.0294
     20 C         141.5661  140.5262  157.6010 C.3     1  UNL1        0.0666
     21 S         140.2704  140.7486  158.3232 S.3     1  UNL1       -0.0756
     22 C         139.9353  139.9273  159.5327 C.ar    1  UNL1        0.1932
     23 N         139.6429  138.4561  159.5461 N.ar    1  UNL1       -0.1221
     24 N         139.3607  138.0524  160.9629 N.ar    1  UNL1       -0.1282
     25 C         139.4788  139.2741  161.8252 C.ar    1  UNL1        0.1668
     26 N         139.8339  140.4329  160.9413 N.ar    1  UNL1       -0.2884
     27 C         140.0497  141.8485  161.3877 C.3     1  UNL1        0.1340
     28 C         139.2771  139.3277  163.3106 C.ar    1  UNL1        0.0360
     29 C         139.3771  140.6377  164.0343 C.ar    1  UNL1        0.0039
     30 C         139.1754  140.6913  165.5197 C.ar    1  UNL1        0.0115
     31 C         138.8737  139.4349  166.2815 C.ar    1  UNL1        0.0577
     32 CL        138.6720  139.4885  167.7669 Cl      1  UNL1       -0.0822
     33 C         138.7737  138.1248  165.5578 C.ar    1  UNL1        0.0115
     34 C         138.9754  138.0713  164.0724 C.ar    1  UNL1        0.0039
@<TRIPOS>BOND
     1    12    13    1
     2    13    14   ar
     3    14    15   ar
     4    15     1    1
     5     1     2   ar
     6     2     3   ar
     7     3     4   ar
     8     4     5   ar
     9     5     6   ar
    10     5     7    1
    11     7     8    1
    12     8     9    1
    13     9    18    1
    14    18    19    1
    15    19    20    1
    16    20    21    1
    17    21    22    1
    18    22    23   ar
    19    23    24   ar
    20    24    25   ar
    21    25    28    1
    22    28    29   ar
    23    29    30   ar
    24    30    31   ar
    25    31    32    1
    26    31    33   ar
    27    33    34   ar
    28    25    26   ar
    29    26    27    1
    30     9    10    1
    31    10    11    1
    32    15    16   ar
    33    16    17   ar
    34    17    13   ar
    35     6     1   ar
    36    26    22   ar
    37    11     4    1
    38    34    28   ar
@<TRIPOS>MOLECULE
*****
 34 38 0 0 0
SMALL
GASTEIGER

@<TRIPOS>ATOM
      1 C         142.2565  142.5025  166.2640 C.ar    1  UNL1        0.0206
      2 C         140.9663  142.9924  165.6762 C.ar    1  UNL1        0.0013
      3 C         140.8448  143.1911  164.1944 C.ar    1  UNL1       -0.0045
      4 C         142.0136  142.9000  163.3003 C.ar    1  UNL1       -0.0247
      5 C         143.3037  142.4102  163.8881 C.ar    1  UNL1       -0.0246
      6 C         143.4253  142.2114  165.3699 C.ar    1  UNL1       -0.0029
      7 C         144.5809  142.0631  163.1821 C.3     1  UNL1        0.0433
      8 C         144.8833  142.1201  161.7139 C.3     1  UNL1        0.0768
      9 N         143.9832  142.5383  160.5894 N.3     1  UNL1       -0.2720
     10 C         142.5585  143.0028  160.6549 C.3     1  UNL1        0.0768
     11 C         141.6819  143.1638  161.8614 C.3     1  UNL1        0.0433
     12 C         141.1148  141.3259  171.2832 C.3     1  UNL1        0.0754
     13 C         141.8532  141.7629  170.0529 C.ar    1  UNL1        0.1548
     14 C         141.2977  141.8067  168.6601 C.ar    1  UNL1        0.0580
     15 C         142.3779  142.3037  167.7458 C.ar    1  UNL1        0.1227
     16 N         143.6010  142.5671  168.5733 N.ar    1  UNL1       -0.0774
     17 O         143.2766  142.2329  169.9992 O.2     1  UNL1       -0.3578
     18 C         144.5879  142.4850  159.2176 C.3     1  UNL1        0.0730
     19 C         143.7966  141.9307  158.0701 C.3     1  UNL1        0.0294
     20 C         143.9867  140.5040  157.6477 C.3     1  UNL1        0.0666
     21 S         143.1339  139.4247  158.2456 S.3     1  UNL1       -0.0756
     22 C         143.1312  139.2068  159.7297 C.ar    1  UNL1        0.1932
     23 N         144.2786  138.6921  160.5474 N.ar    1  UNL1       -0.1221
     24 N         143.8372  138.6325  161.9797 N.ar    1  UNL1       -0.1282
     25 C         142.4170  139.1105  162.0473 C.ar    1  UNL1        0.1668
     26 N         141.9806  139.4654  160.6567 N.ar    1  UNL1       -0.2884
     27 C         140.6307  139.9873  160.2625 C.3     1  UNL1        0.1340
     28 C         141.5801  139.2151  163.2877 C.ar    1  UNL1        0.0360
     29 C         140.1524  139.6656  163.1934 C.ar    1  UNL1        0.0039
     30 C         139.3155  139.7702  164.4338 C.ar    1  UNL1        0.0115
     31 C         139.9061  139.4244  165.7685 C.ar    1  UNL1        0.0577
     32 CL        139.0691  139.5290  167.0089 Cl      1  UNL1       -0.0822
     33 C         141.3337  138.9738  165.8628 C.ar    1  UNL1        0.0115
     34 C         142.1707  138.8692  164.6224 C.ar    1  UNL1        0.0039
@<TRIPOS>BOND
     1    12    13    1
     2    13    14   ar
     3    14    15   ar
     4    15     1    1
     5     1     2   ar
     6     2     3   ar
     7     3     4   ar
     8     4     5   ar
     9     5     6   ar
    10     5     7    1
    11     7     8    1
    12     8     9    1
    13     9    18    1
    14    18    19    1
    15    19    20    1
    16    20    21    1
    17    21    22    1
    18    22    23   ar
    19    23    24   ar
    20    24    25   ar
    21    25    28    1
    22    28    29   ar
    23    29    30   ar
    24    30    31   ar
    25    31    32    1
    26    31    33   ar
    27    33    34   ar
    28    25    26   ar
    29    26    27    1
    30     9    10    1
    31    10    11    1
    32    15    16   ar
    33    16    17   ar
    34    17    13   ar
    35     6     1   ar
    36    26    22   ar
    37    11     4    1
    38    34    28   ar
@<TRIPOS>MOLECULE
*****
 34 38 0 0 0
SMALL
GASTEIGER

@<TRIPOS>ATOM
      1 C         139.2233  139.1849  164.2567 C.ar    1  UNL1        0.0206
      2 C         139.2032  137.8735  163.5289 C.ar    1  UNL1        0.0013
      3 C         139.4844  137.8287  162.0561 C.ar    1  UNL1       -0.0045
      4 C         139.7858  139.0954  161.3113 C.ar    1  UNL1       -0.0247
      5 C         139.8059  140.4067  162.0391 C.ar    1  UNL1       -0.0246
      6 C         139.5247  140.4516  163.5118 C.ar    1  UNL1       -0.0029
      7 C         140.0815  141.7760  161.4920 C.3     1  UNL1        0.0433
      8 C         140.4049  142.1719  160.0817 C.3     1  UNL1        0.0768
      9 N         140.5327  141.2965  158.8705 N.3     1  UNL1       -0.2720
     10 C         140.3686  139.8088  158.7702 C.3     1  UNL1        0.0768
     11 C         140.0362  138.8293  159.8564 C.3     1  UNL1        0.0433
     12 C         139.3878  140.5211  169.3624 C.3     1  UNL1        0.0754
     13 C         139.0177  139.8438  168.0763 C.ar    1  UNL1        0.1548
     14 C         139.5995  140.1385  166.7254 C.ar    1  UNL1        0.0580
     15 C         138.9421  139.2297  165.7294 C.ar    1  UNL1        0.1227
     16 N         137.9541  138.3734  166.4647 N.ar    1  UNL1       -0.0774
     17 O         138.0008  138.7529  167.9151 O.2     1  UNL1       -0.3578
     18 C         140.8691  142.0019  157.5902 C.3     1  UNL1        0.0730
     19 C         141.9937  142.9939  157.5534 C.3     1  UNL1        0.0294
     20 C         143.3844  142.5393  157.2229 C.3     1  UNL1        0.0666
     21 S         144.3720  142.2859  158.3230 S.3     1  UNL1       -0.0756
     22 C         144.0993  141.2228  159.3455 C.ar    1  UNL1        0.1932
     23 N         143.9495  139.7554  159.0732 N.ar    1  UNL1       -0.1221
     24 N         143.6862  139.0660  160.3791 N.ar    1  UNL1       -0.1282
     25 C         143.6734  140.1075  161.4586 C.ar    1  UNL1        0.1668
     26 N         143.9287  141.4405  160.8197 N.ar    1  UNL1       -0.2884
     27 C         144.0007  142.7594  161.5305 C.3     1  UNL1        0.1340
     28 C         143.4453  139.8595  162.9202 C.ar    1  UNL1        0.0360
     29 C         143.7082  140.9501  163.9160 C.ar    1  UNL1        0.0039
     30 C         143.4801  140.7021  165.3776 C.ar    1  UNL1        0.0115
     31 C         142.9891  139.3637  165.8436 C.ar    1  UNL1        0.0577
     32 CL        142.7609  139.1157  167.3053 Cl      1  UNL1       -0.0822
     33 C         142.7261  138.2731  164.8479 C.ar    1  UNL1        0.0115
     34 C         142.9542  138.5210  163.3862 C.ar    1  UNL1        0.0039
@<TRIPOS>BOND
     1    12    13    1
     2    13    14   ar
     3    14    15   ar
     4    15     1    1
     5     1     2   ar
     6     2     3   ar
     7     3     4   ar
     8     4     5   ar
     9     5     6   ar
    10     5     7    1
    11     7     8    1
    12     8     9    1
    13     9    18    1
    14    18    19    1
    15    19    20    1
    16    20    21    1
    17    21    22    1
    18    22    23   ar
    19    23    24   ar
    20    24    25   ar
    21    25    28    1
    22    28    29   ar
    23    29    30   ar
    24    30    31   ar
    25    31    32    1
    26    31    33   ar
    27    33    34   ar
    28    25    26   ar
    29    26    27    1
    30     9    10    1
    31    10    11    1
    32    15    16   ar
    33    16    17   ar
    34    17    13   ar
    35     6     1   ar
    36    26    22   ar
    37    11     4    1
    38    34    28   ar
@<TRIPOS>MOLECULE
*****
 34 38 0 0 0
SMALL
GASTEIGER

@<TRIPOS>ATOM
      1 C         141.7672  141.9348  165.8450 C.ar    1  UNL1        0.0206
      2 C         142.1170  140.5636  165.3475 C.ar    1  UNL1        0.0013
      3 C         142.2039  140.3001  163.8733 C.ar    1  UNL1       -0.0045
      4 C         141.9409  141.4079  162.8967 C.ar    1  UNL1       -0.0247
      5 C         141.5912  142.7789  163.3942 C.ar    1  UNL1       -0.0246
      6 C         141.5043  143.0425  164.8683 C.ar    1  UNL1       -0.0029
      7 C         141.2935  144.0150  162.5981 C.3     1  UNL1        0.0433
      8 C         141.2723  144.1851  161.1078 C.3     1  UNL1        0.0768
      9 N         141.5433  143.1612  160.0458 N.3     1  UNL1       -0.2720
     10 C         141.9026  141.7143  160.2115 C.3     1  UNL1        0.0768
     11 C         142.0795  140.9340  161.4803 C.3     1  UNL1        0.0433
     12 C         139.8565  142.9660  170.6581 C.3     1  UNL1        0.0754
     13 C         140.8022  142.6722  169.5315 C.ar    1  UNL1        0.1548
     14 C         140.4244  142.4641  168.0947 C.ar    1  UNL1        0.0580
     15 C         141.6804  142.1982  167.3191 C.ar    1  UNL1        0.1227
     16 N         142.8344  142.2420  168.2763 N.ar    1  UNL1       -0.0774
     17 O         142.2916  142.5349  169.6436 O.2     1  UNL1       -0.3578
     18 C         141.4416  143.6486  158.6309 C.3     1  UNL1        0.0730
     19 C         140.1054  143.7063  157.9516 C.3     1  UNL1        0.0294
     20 C         139.4958  142.4569  157.3882 C.3     1  UNL1        0.0666
     21 S         138.2819  141.8576  158.0341 S.3     1  UNL1       -0.0756
     22 C         138.4377  140.8675  159.1500 C.ar    1  UNL1        0.1932
     23 N         138.6878  139.3966  158.9951 N.ar    1  UNL1       -0.1221
     24 N         138.7755  138.7944  160.3661 N.ar    1  UNL1       -0.1282
     25 C         138.5796  139.8931  161.3683 C.ar    1  UNL1        0.1668
     26 N         138.3709  141.1744  160.6167 N.ar    1  UNL1       -0.2884
     27 C         138.1365  142.5253  161.2251 C.3     1  UNL1        0.1340
     28 C         138.5906  139.7378  162.8602 C.ar    1  UNL1        0.0360
     29 C         138.3358  140.9259  163.7398 C.ar    1  UNL1        0.0039
     30 C         138.3468  140.7706  165.2317 C.ar    1  UNL1        0.0115
     31 C         138.6125  139.4274  165.8441 C.ar    1  UNL1        0.0577
     32 CL        138.6234  139.2721  167.3360 Cl      1  UNL1       -0.0822
     33 C         138.8673  138.2394  164.9645 C.ar    1  UNL1        0.0115
     34 C         138.8563  138.3946  163.4726 C.ar    1  UNL1        0.0039
@<TRIPOS>BOND
     1    12    13    1
     2    13    14   ar
     3    14    15   ar
     4    15     1    1
     5     1     2   ar
     6     2     3   ar
     7     3     4   ar
     8     4     5   ar
     9     5     6   ar
    10     5     7    1
    11     7     8    1
    12     8     9    1
    13     9    18    1
    14    18    19    1
    15    19    20    1
    16    20    21    1
    17    21    22    1
    18    22    23   ar
    19    23    24   ar
    20    24    25   ar
    21    25    28    1
    22    28    29   ar
    23    29    30   ar
    24    30    31   ar
    25    31    32    1
    26    31    33   ar
    27    33    34   ar
    28    25    26   ar
    29    26    27    1
    30     9    10    1
    31    10    11    1
    32    15    16   ar
    33    16    17   ar
    34    17    13   ar
    35     6     1   ar
    36    26    22   ar
    37    11     4    1
    38    34    28   ar
