@<TRIPOS>MOLECULE
*****
 36 41 0 0 0
SMALL
GASTEIGER

@<TRIPOS>ATOM
      1 C         142.6860  136.1785  155.9050 C.ar    1  UNL1       -0.0065
      2 C         141.7872  136.5661  154.7685 C.ar    1  UNL1       -0.0032
      3 C         140.6329  137.4936  155.0078 C.ar    1  UNL1       -0.0026
      4 C         140.3774  138.0335  156.3838 C.ar    1  UNL1        0.0019
      5 C         141.2762  137.6459  157.5204 C.ar    1  UNL1       -0.0200
      6 C         142.4305  136.7184  157.2810 C.ar    1  UNL1       -0.0071
      7 C         140.7799  138.3318  158.7585 C.3     1  UNL1        0.0519
      8 C         139.5743  139.1434  158.3872 C.2     1  UNL1        0.0074
      9 C         138.5224  140.0690  158.9229 C.2     1  UNL1        0.0976
     10 N         137.6237  140.4566  157.7863 N.2     1  UNL1       -0.1526
     11 N         138.1200  139.7707  156.5482 N.2     1  UNL1       -0.1678
     12 C         139.3255  138.9591  156.9195 C.3     1  UNL1        0.1672
     13 C         138.3923  140.5265  160.3455 C.ar    1  UNL1        0.0265
     14 C         138.2278  141.9454  160.8038 C.ar    1  UNL1        0.0376
     15 S         138.1376  141.9413  162.3010 S.2     1  UNL1       -0.0780
     16 C         138.2464  140.5200  162.7681 C.ar    1  UNL1        0.0710
     17 C         138.4038  139.6457  161.5595 C.ar    1  UNL1        0.0168
     18 C         138.2050  140.0548  164.1935 C.1     1  UNL1       -0.0561
     19 C         138.1636  139.5895  165.6190 C.1     1  UNL1       -0.0640
     20 C         138.1222  139.1243  167.0444 C.3     1  UNL1        0.1654
     21 N         139.3310  139.2786  167.9191 N.pl3   1  UNL1       -0.3220
     22 H         139.8989  138.4989  168.1159 H       1  UNL1        0.1477
     23 C         139.6744  140.6209  168.4939 C.ar    1  UNL1        0.0453
     24 C         139.3037  140.9474  169.9102 C.ar    1  UNL1        0.0143
     25 C         139.6470  142.2896  170.4850 C.ar    1  UNL1        0.0013
     26 C         140.3612  143.3054  169.6435 C.ar    1  UNL1        0.0001
     27 C         140.7319  142.9789  168.2272 C.ar    1  UNL1        0.0013
     28 C         140.3885  141.6367  167.6524 C.ar    1  UNL1        0.0143
     29 C         143.8403  135.2509  155.6657 C.3     1  UNL1        0.0992
     30 C         143.2617  129.3872  156.7976 C.3     1  UNL1        0.0897
     31 N         143.4064  130.8531  156.5146 N.3     1  UNL1       -0.2691
     32 C         142.7870  131.4438  155.2828 C.3     1  UNL1        0.0897
     33 C         142.9316  132.9098  154.9998 C.3     1  UNL1        0.0899
     34 N         143.6956  133.7850  155.9487 N.3     1  UNL1       -0.2665
     35 C         144.3150  133.1942  157.1805 C.3     1  UNL1        0.0899
     36 C         144.1704  131.7283  157.4635 C.3     1  UNL1        0.0897
@<TRIPOS>BOND
     1    30    31    1
     2    31    32    1
     3    32    33    1
     4    33    34    1
     5    34    29    1
     6    29     1    1
     7     1     2   ar
     8     2     3   ar
     9     3     4   ar
    10     4     5   ar
    11     5     6   ar
    12     5     7    1
    13     7     8    1
    14     8     9    2
    15     9    13    1
    16    13    14   ar
    17    14    15   ar
    18    15    16   ar
    19    16    18    1
    20    18    19    3
    21    19    20    1
    22    20    21    1
    23    21    23    1
    24    23    24   ar
    25    24    25   ar
    26    25    26   ar
    27    26    27   ar
    28    27    28   ar
    29    16    17   ar
    30     9    10    1
    31    10    11    2
    32    11    12    1
    33    34    35    1
    34    35    36    1
    35    36    31    1
    36     6     1   ar
    37    12     8    1
    38    12     4    1
    39    17    13   ar
    40    28    23   ar
    41    21    22    1
@<TRIPOS>MOLECULE
*****
 36 41 0 0 0
SMALL
GASTEIGER

@<TRIPOS>ATOM
      1 C         138.3784  140.0568  164.7909 C.ar    1  UNL1       -0.0065
      2 C         138.2044  141.5441  164.7047 C.ar    1  UNL1       -0.0032
      3 C         138.1906  142.2212  163.3663 C.ar    1  UNL1       -0.0026
      4 C         138.3509  141.4110  162.1142 C.ar    1  UNL1        0.0019
      5 C         138.5249  139.9237  162.2004 C.ar    1  UNL1       -0.0200
      6 C         138.5387  139.2466  163.5388 C.ar    1  UNL1       -0.0071
      7 C         138.6591  139.3910  160.8046 C.3     1  UNL1        0.0519
      8 C         138.5680  140.5491  159.8557 C.2     1  UNL1        0.0074
      9 C         138.5947  140.9357  158.4066 C.2     1  UNL1        0.0976
     10 N         138.4207  142.4230  158.3204 N.2     1  UNL1       -0.1526
     11 N         138.2865  142.9557  159.7161 N.2     1  UNL1       -0.1678
     12 C         138.3775  141.7976  160.6650 C.3     1  UNL1        0.1672
     13 C         138.7654  139.9992  157.2473 C.ar    1  UNL1        0.0265
     14 C         138.1393  140.1500  155.8925 C.ar    1  UNL1        0.0376
     15 S         138.5791  138.9916  155.0472 S.2     1  UNL1       -0.0780
     16 C         139.4770  138.1249  155.8795 C.ar    1  UNL1        0.0710
     17 C         139.5921  138.7476  157.2392 C.ar    1  UNL1        0.0168
     18 C         140.1428  136.8579  155.4308 C.1     1  UNL1       -0.0561
     19 C         140.8086  135.5908  154.9821 C.1     1  UNL1       -0.0640
     20 C         141.4745  134.3238  154.5335 C.3     1  UNL1        0.1654
     21 N         141.5310  133.1400  155.4530 N.pl3   1  UNL1       -0.3220
     22 H         140.7266  132.5917  155.5996 H       1  UNL1        0.1477
     23 C         142.8133  132.7915  156.1490 C.ar    1  UNL1        0.0453
     24 C         143.6481  131.6476  155.6546 C.ar    1  UNL1        0.0143
     25 C         144.9303  131.2991  156.3506 C.ar    1  UNL1        0.0013
     26 C         145.3777  132.0946  157.5410 C.ar    1  UNL1        0.0001
     27 C         144.5429  133.2385  158.0354 C.ar    1  UNL1        0.0013
     28 C         143.2607  133.5870  157.3394 C.ar    1  UNL1        0.0143
     29 C         138.3922  139.3796  166.1293 C.3     1  UNL1        0.0992
     30 C         142.8617  140.4491  169.9867 C.3     1  UNL1        0.0897
     31 N         141.7444  140.1817  169.0224 N.3     1  UNL1       -0.2691
     32 C         140.3194  140.2704  169.4823 C.3     1  UNL1        0.0897
     33 C         139.2020  140.0031  168.5180 C.3     1  UNL1        0.0899
     34 N         139.5096  139.6470  167.0937 N.3     1  UNL1       -0.2665
     35 C         140.9346  139.5583  166.6337 C.3     1  UNL1        0.0899
     36 C         142.0520  139.8257  167.5981 C.3     1  UNL1        0.0897
@<TRIPOS>BOND
     1    30    31    1
     2    31    32    1
     3    32    33    1
     4    33    34    1
     5    34    29    1
     6    29     1    1
     7     1     2   ar
     8     2     3   ar
     9     3     4   ar
    10     4     5   ar
    11     5     6   ar
    12     5     7    1
    13     7     8    1
    14     8     9    2
    15     9    13    1
    16    13    14   ar
    17    14    15   ar
    18    15    16   ar
    19    16    18    1
    20    18    19    3
    21    19    20    1
    22    20    21    1
    23    21    23    1
    24    23    24   ar
    25    24    25   ar
    26    25    26   ar
    27    26    27   ar
    28    27    28   ar
    29    16    17   ar
    30     9    10    1
    31    10    11    2
    32    11    12    1
    33    34    35    1
    34    35    36    1
    35    36    31    1
    36     6     1   ar
    37    12     8    1
    38    12     4    1
    39    17    13   ar
    40    28    23   ar
    41    21    22    1
@<TRIPOS>MOLECULE
*****
 36 41 0 0 0
SMALL
GASTEIGER

@<TRIPOS>ATOM
      1 C         139.7641  146.9718  155.7201 C.ar    1  UNL1       -0.0065
      2 C         140.9673  146.3391  155.0863 C.ar    1  UNL1       -0.0032
      3 C         141.8691  145.4600  155.9011 C.ar    1  UNL1       -0.0026
      4 C         141.5676  145.2135  157.3496 C.ar    1  UNL1        0.0019
      5 C         140.3643  145.8462  157.9835 C.ar    1  UNL1       -0.0200
      6 C         139.4626  146.7254  157.1687 C.ar    1  UNL1       -0.0071
      7 C         140.3221  145.4237  159.4221 C.3     1  UNL1        0.0519
      8 C         141.4994  144.5298  159.6774 C.2     1  UNL1        0.0074
      9 C         142.2008  143.7163  160.7243 C.2     1  UNL1        0.0976
     10 N         143.4041  143.0836  160.0905 N.2     1  UNL1       -0.1526
     11 N         143.4463  143.5061  158.6519 N.2     1  UNL1       -0.1678
     12 C         142.2691  144.3999  158.3966 C.3     1  UNL1        0.1672
     13 C         141.7739  143.5624  162.1541 C.ar    1  UNL1        0.0265
     14 C         141.8067  144.6332  163.2041 C.ar    1  UNL1        0.0376
     15 S         141.2923  144.0434  164.4837 S.2     1  UNL1       -0.0780
     16 C         140.9417  142.6081  164.2246 C.ar    1  UNL1        0.0710
     17 C         141.2393  142.3109  162.7848 C.ar    1  UNL1        0.0168
     18 C         140.3902  141.6400  165.2289 C.1     1  UNL1       -0.0561
     19 C         139.8388  140.6719  166.2333 C.1     1  UNL1       -0.0640
     20 C         139.2873  139.7038  167.2377 C.3     1  UNL1        0.1654
     21 N         139.5859  139.8851  168.6964 N.pl3   1  UNL1       -0.3220
     22 H         139.0861  139.3683  169.3691 H       1  UNL1        0.1477
     23 C         140.6460  140.8536  169.1303 C.ar    1  UNL1        0.0453
     24 C         142.0820  140.4226  169.1769 C.ar    1  UNL1        0.0143
     25 C         143.1420  141.3911  169.6108 C.ar    1  UNL1        0.0013
     26 C         142.7661  142.7906  169.9981 C.ar    1  UNL1        0.0001
     27 C         141.3301  143.2216  169.9515 C.ar    1  UNL1        0.0013
     28 C         140.2701  142.2531  169.5176 C.ar    1  UNL1        0.0143
     29 C         138.8622  147.8510  154.9054 C.3     1  UNL1        0.0992
     30 C         140.4756  153.5014  153.6935 C.3     1  UNL1        0.0897
     31 N         140.0723  152.0888  153.9964 N.3     1  UNL1       -0.2691
     32 C         139.1975  151.7959  155.1792 C.3     1  UNL1        0.0897
     33 C         138.7941  150.3833  155.4822 C.3     1  UNL1        0.0899
     34 N         139.2655  149.2636  154.6024 N.3     1  UNL1       -0.2665
     35 C         140.1403  149.5565  153.4196 C.3     1  UNL1        0.0899
     36 C         140.5437  150.9691  153.1166 C.3     1  UNL1        0.0897
@<TRIPOS>BOND
     1    30    31    1
     2    31    32    1
     3    32    33    1
     4    33    34    1
     5    34    29    1
     6    29     1    1
     7     1     2   ar
     8     2     3   ar
     9     3     4   ar
    10     4     5   ar
    11     5     6   ar
    12     5     7    1
    13     7     8    1
    14     8     9    2
    15     9    13    1
    16    13    14   ar
    17    14    15   ar
    18    15    16   ar
    19    16    18    1
    20    18    19    3
    21    19    20    1
    22    20    21    1
    23    21    23    1
    24    23    24   ar
    25    24    25   ar
    26    25    26   ar
    27    26    27   ar
    28    27    28   ar
    29    16    17   ar
    30     9    10    1
    31    10    11    2
    32    11    12    1
    33    34    35    1
    34    35    36    1
    35    36    31    1
    36     6     1   ar
    37    12     8    1
    38    12     4    1
    39    17    13   ar
    40    28    23   ar
    41    21    22    1
@<TRIPOS>MOLECULE
*****
 36 41 0 0 0
SMALL
GASTEIGER

@<TRIPOS>ATOM
      1 C         142.8500  137.7840  156.2920 C.ar    1  UNL1       -0.0065
      2 C         143.6417  139.0285  156.0192 C.ar    1  UNL1       -0.0032
      3 C         143.9087  140.0052  157.1258 C.ar    1  UNL1       -0.0026
      4 C         143.3842  139.7373  158.5054 C.ar    1  UNL1        0.0019
      5 C         142.5926  138.4928  158.7782 C.ar    1  UNL1       -0.0200
      6 C         142.3255  137.5162  157.6716 C.ar    1  UNL1       -0.0071
      7 C         142.2066  138.4975  160.2277 C.3     1  UNL1        0.0519
      8 C         142.7597  139.7449  160.8507 C.2     1  UNL1        0.0074
      9 C         142.8629  140.5187  162.1315 C.2     1  UNL1        0.0976
     10 N         143.6545  141.7632  161.8587 N.2     1  UNL1       -0.1526
     11 N         144.0405  141.7585  160.4092 N.2     1  UNL1       -0.1678
     12 C         143.4875  140.5112  159.7863 C.3     1  UNL1        0.1672
     13 C         142.2773  140.1183  163.4532 C.ar    1  UNL1        0.0265
     14 C         140.8461  139.7482  163.7076 C.ar    1  UNL1        0.0376
     15 S         140.7044  139.4189  165.1641 S.2     1  UNL1       -0.0780
     16 C         142.0480  139.5853  165.8099 C.ar    1  UNL1        0.0710
     17 C         143.0201  140.0175  164.7525 C.ar    1  UNL1        0.0168
     18 C         142.3641  139.3592  167.2586 C.1     1  UNL1       -0.0561
     19 C         142.6801  139.1331  168.7075 C.1     1  UNL1       -0.0640
     20 C         142.9962  138.9070  170.1562 C.3     1  UNL1        0.1654
     21 N         142.7329  139.9907  171.1593 N.pl3   1  UNL1       -0.3220
     22 H         143.0915  139.9135  172.0729 H       1  UNL1        0.1477
     23 C         141.9232  141.1921  170.7704 C.ar    1  UNL1        0.0453
     24 C         140.4249  141.1222  170.7811 C.ar    1  UNL1        0.0143
     25 C         139.6152  142.3234  170.3922 C.ar    1  UNL1        0.0013
     26 C         140.3039  143.5947  169.9926 C.ar    1  UNL1        0.0001
     27 C         141.8022  143.6646  169.9819 C.ar    1  UNL1        0.0013
     28 C         142.6119  142.4633  170.3708 C.ar    1  UNL1        0.0143
     29 C         142.5829  136.8073  155.1853 C.3     1  UNL1        0.0992
     30 C         142.6897  130.9120  156.2962 C.3     1  UNL1        0.0897
     31 N         142.6630  132.3858  156.0185 N.3     1  UNL1       -0.2691
     32 C         143.8152  133.2492  156.4390 C.3     1  UNL1        0.0897
     33 C         143.7886  134.7231  156.1613 C.3     1  UNL1        0.0899
     34 N         142.6096  135.3335  155.4630 N.3     1  UNL1       -0.2665
     35 C         141.4574  134.4700  155.0425 C.3     1  UNL1        0.0899
     36 C         141.4841  132.9962  155.3202 C.3     1  UNL1        0.0897
@<TRIPOS>BOND
     1    30    31    1
     2    31    32    1
     3    32    33    1
     4    33    34    1
     5    34    29    1
     6    29     1    1
     7     1     2   ar
     8     2     3   ar
     9     3     4   ar
    10     4     5   ar
    11     5     6   ar
    12     5     7    1
    13     7     8    1
    14     8     9    2
    15     9    13    1
    16    13    14   ar
    17    14    15   ar
    18    15    16   ar
    19    16    18    1
    20    18    19    3
    21    19    20    1
    22    20    21    1
    23    21    23    1
    24    23    24   ar
    25    24    25   ar
    26    25    26   ar
    27    26    27   ar
    28    27    28   ar
    29    16    17   ar
    30     9    10    1
    31    10    11    2
    32    11    12    1
    33    34    35    1
    34    35    36    1
    35    36    31    1
    36     6     1   ar
    37    12     8    1
    38    12     4    1
    39    17    13   ar
    40    28    23   ar
    41    21    22    1
@<TRIPOS>MOLECULE
*****
 36 41 0 0 0
SMALL
GASTEIGER

@<TRIPOS>ATOM
      1 C         135.9311  141.0202  155.3494 C.ar    1  UNL1       -0.0065
      2 C         136.1471  142.1463  154.3823 C.ar    1  UNL1       -0.0032
      3 C         137.1077  143.2486  154.7172 C.ar    1  UNL1       -0.0026
      4 C         137.8523  143.2247  156.0191 C.ar    1  UNL1        0.0019
      5 C         137.6363  142.0986  156.9862 C.ar    1  UNL1       -0.0200
      6 C         136.6757  140.9964  156.6513 C.ar    1  UNL1       -0.0071
      7 C         138.5059  142.3428  158.1837 C.3     1  UNL1        0.0519
      8 C         139.2594  143.6198  157.9568 C.2     1  UNL1        0.0074
      9 C         140.2625  144.5599  158.5568 C.2     1  UNL1        0.0976
     10 N         140.4785  145.6860  157.5898 N.2     1  UNL1       -0.1526
     11 N         139.6089  145.4419  156.3922 N.2     1  UNL1       -0.1678
     12 C         138.8555  144.1649  156.6191 C.3     1  UNL1        0.1672
     13 C         140.9320  144.4017  159.8897 C.ar    1  UNL1        0.0265
     14 C         140.6199  145.1832  161.1315 C.ar    1  UNL1        0.0376
     15 S         141.5262  144.6987  162.2241 S.2     1  UNL1       -0.0780
     16 C         142.3984  143.6178  161.6577 C.ar    1  UNL1        0.0710
     17 C         142.0312  143.4342  160.2150 C.ar    1  UNL1        0.0168
     18 C         143.4527  142.8544  162.4031 C.1     1  UNL1       -0.0561
     19 C         144.5071  142.0910  163.1486 C.1     1  UNL1       -0.0640
     20 C         145.5614  141.3276  163.8940 C.3     1  UNL1        0.1654
     21 N         145.4718  139.8341  164.0004 N.pl3   1  UNL1       -0.3220
     22 H         146.2932  139.2949  164.0628 H       1  UNL1        0.1477
     23 C         144.1308  139.1621  164.0116 C.ar    1  UNL1        0.0453
     24 C         143.3723  139.0231  165.2982 C.ar    1  UNL1        0.0143
     25 C         142.0313  138.3511  165.3095 C.ar    1  UNL1        0.0013
     26 C         141.4488  137.8181  164.0342 C.ar    1  UNL1        0.0001
     27 C         142.2073  137.9571  162.7475 C.ar    1  UNL1        0.0013
     28 C         143.5483  138.6291  162.7363 C.ar    1  UNL1        0.0143
     29 C         134.9704  139.9179  155.0145 C.3     1  UNL1        0.0992
     30 C         129.5434  139.7887  157.5700 C.3     1  UNL1        0.0897
     31 N         130.9001  139.8210  156.9312 N.3     1  UNL1       -0.2691
     32 C         131.2758  140.9562  156.0255 C.3     1  UNL1        0.0897
     33 C         132.6326  140.9885  155.3866 C.3     1  UNL1        0.0899
     34 N         133.6137  139.8856  155.6534 N.3     1  UNL1       -0.2665
     35 C         133.2379  138.7504  156.5590 C.3     1  UNL1        0.0899
     36 C         131.8812  138.7181  157.1979 C.3     1  UNL1        0.0897
@<TRIPOS>BOND
     1    30    31    1
     2    31    32    1
     3    32    33    1
     4    33    34    1
     5    34    29    1
     6    29     1    1
     7     1     2   ar
     8     2     3   ar
     9     3     4   ar
    10     4     5   ar
    11     5     6   ar
    12     5     7    1
    13     7     8    1
    14     8     9    2
    15     9    13    1
    16    13    14   ar
    17    14    15   ar
    18    15    16   ar
    19    16    18    1
    20    18    19    3
    21    19    20    1
    22    20    21    1
    23    21    23    1
    24    23    24   ar
    25    24    25   ar
    26    25    26   ar
    27    26    27   ar
    28    27    28   ar
    29    16    17   ar
    30     9    10    1
    31    10    11    2
    32    11    12    1
    33    34    35    1
    34    35    36    1
    35    36    31    1
    36     6     1   ar
    37    12     8    1
    38    12     4    1
    39    17    13   ar
    40    28    23   ar
    41    21    22    1
@<TRIPOS>MOLECULE
*****
 36 41 0 0 0
SMALL
GASTEIGER

@<TRIPOS>ATOM
      1 C         142.6075  135.5597  155.5954 C.ar    1  UNL1       -0.0065
      2 C         141.5720  135.7012  154.5195 C.ar    1  UNL1       -0.0032
      3 C         140.4406  136.6711  154.6905 C.ar    1  UNL1       -0.0026
      4 C         140.3448  137.4995  155.9373 C.ar    1  UNL1        0.0019
      5 C         141.3803  137.3580  157.0132 C.ar    1  UNL1       -0.0200
      6 C         142.5117  136.3881  156.8423 C.ar    1  UNL1       -0.0071
      7 C         141.0264  138.3017  158.1241 C.3     1  UNL1        0.0519
      8 C         139.7722  139.0265  157.7348 C.2     1  UNL1        0.0074
      9 C         138.7783  140.0576  158.1809 C.2     1  UNL1        0.0976
     10 N         137.7428  140.1991  157.1050 N.2     1  UNL1       -0.1526
     11 N         138.0967  139.2554  155.9940 N.2     1  UNL1       -0.1678
     12 C         139.3509  138.5307  156.3833 C.3     1  UNL1        0.1672
     13 C         138.8138  140.8144  159.4755 C.ar    1  UNL1        0.0265
     14 C         137.8371  140.6748  160.6054 C.ar    1  UNL1        0.0376
     15 S         138.2519  141.6178  161.6957 S.2     1  UNL1       -0.0780
     16 C         139.4849  142.3401  161.2397 C.ar    1  UNL1        0.0710
     17 C         139.8321  141.8436  159.8675 C.ar    1  UNL1        0.0168
     18 C         140.2383  143.3769  162.0190 C.1     1  UNL1       -0.0561
     19 C         140.9917  144.4138  162.7983 C.1     1  UNL1       -0.0640
     20 C         141.7452  145.4506  163.5776 C.3     1  UNL1        0.1654
     21 N         143.2452  145.4476  163.5750 N.pl3   1  UNL1       -0.3220
     22 H         143.7392  146.2951  163.6584 H       1  UNL1        0.1477
     23 C         143.9923  144.1534  163.4452 C.ar    1  UNL1        0.0453
     24 C         144.3590  143.6320  162.0874 C.ar    1  UNL1        0.0143
     25 C         145.1062  142.3378  161.9576 C.ar    1  UNL1        0.0013
     26 C         145.4866  141.5651  163.1857 C.ar    1  UNL1        0.0001
     27 C         145.1199  142.0865  164.5435 C.ar    1  UNL1        0.0013
     28 C         144.3728  143.3807  164.6733 C.ar    1  UNL1        0.0143
     29 C         143.7390  134.5898  155.4245 C.3     1  UNL1        0.0992
     30 C         143.4189  129.1387  157.9110 C.3     1  UNL1        0.0897
     31 N         143.4989  130.5014  157.2894 N.3     1  UNL1       -0.2691
     32 C         142.5789  130.8669  156.1625 C.3     1  UNL1        0.0897
     33 C         142.6589  132.2297  155.5409 C.3     1  UNL1        0.0899
     34 N         143.6589  133.2270  156.0461 N.3     1  UNL1       -0.2665
     35 C         144.5790  132.8615  157.1731 C.3     1  UNL1        0.0899
     36 C         144.4990  131.4987  157.7947 C.3     1  UNL1        0.0897
@<TRIPOS>BOND
     1    30    31    1
     2    31    32    1
     3    32    33    1
     4    33    34    1
     5    34    29    1
     6    29     1    1
     7     1     2   ar
     8     2     3   ar
     9     3     4   ar
    10     4     5   ar
    11     5     6   ar
    12     5     7    1
    13     7     8    1
    14     8     9    2
    15     9    13    1
    16    13    14   ar
    17    14    15   ar
    18    15    16   ar
    19    16    18    1
    20    18    19    3
    21    19    20    1
    22    20    21    1
    23    21    23    1
    24    23    24   ar
    25    24    25   ar
    26    25    26   ar
    27    26    27   ar
    28    27    28   ar
    29    16    17   ar
    30     9    10    1
    31    10    11    2
    32    11    12    1
    33    34    35    1
    34    35    36    1
    35    36    31    1
    36     6     1   ar
    37    12     8    1
    38    12     4    1
    39    17    13   ar
    40    28    23   ar
    41    21    22    1
@<TRIPOS>MOLECULE
*****
 36 41 0 0 0
SMALL
GASTEIGER

@<TRIPOS>ATOM
      1 C         142.1746  137.2063  156.4288 C.ar    1  UNL1       -0.0065
      2 C         143.2266  138.0614  155.7870 C.ar    1  UNL1       -0.0032
      3 C         143.7249  139.2902  156.4883 C.ar    1  UNL1       -0.0026
      4 C         143.1712  139.6638  157.8313 C.ar    1  UNL1        0.0019
      5 C         142.1191  138.8087  158.4731 C.ar    1  UNL1       -0.0200
      6 C         141.6208  137.5799  157.7718 C.ar    1  UNL1       -0.0071
      7 C         141.7636  139.4243  159.7939 C.3     1  UNL1        0.0519
      8 C         142.5960  140.6600  159.9685 C.2     1  UNL1        0.0074
      9 C         142.8906  141.8041  160.8927 C.2     1  UNL1        0.0976
     10 N         143.9427  142.6592  160.2509 N.2     1  UNL1       -0.1526
     11 N         144.2982  142.0436  158.9301 N.2     1  UNL1       -0.1678
     12 C         143.4659  140.8080  158.7555 C.3     1  UNL1        0.1672
     13 C         142.2464  142.0499  162.2248 C.ar    1  UNL1        0.0265
     14 C         142.1042  143.3801  162.9034 C.ar    1  UNL1        0.0376
     15 S         141.4011  143.1610  164.2101 S.2     1  UNL1       -0.0780
     16 C         141.1088  141.6954  164.3392 C.ar    1  UNL1        0.0710
     17 C         141.6312  141.0087  163.1122 C.ar    1  UNL1        0.0168
     18 C         140.4157  141.0328  165.4927 C.1     1  UNL1       -0.0561
     19 C         139.7226  140.3702  166.6463 C.1     1  UNL1       -0.0640
     20 C         139.0296  139.7077  167.7998 C.3     1  UNL1        0.1654
     21 N         139.5307  139.9193  169.1977 N.pl3   1  UNL1       -0.3220
     22 H         139.1208  139.4295  169.9469 H       1  UNL1        0.1477
     23 C         140.6563  140.8771  169.4540 C.ar    1  UNL1        0.0453
     24 C         142.0740  140.3871  169.4476 C.ar    1  UNL1        0.0143
     25 C         143.1996  141.3449  169.7039 C.ar    1  UNL1        0.0013
     26 C         142.9075  142.7925  169.9665 C.ar    1  UNL1        0.0001
     27 C         141.4898  143.2824  169.9728 C.ar    1  UNL1        0.0013
     28 C         140.3642  142.3247  169.7165 C.ar    1  UNL1        0.0143
     29 C         141.6762  135.9775  155.7275 C.3     1  UNL1        0.0992
     30 C         143.8320  130.5835  157.2300 C.3     1  UNL1        0.0897
     31 N         143.2930  131.9320  156.8544 N.3     1  UNL1       -0.2691
     32 C         143.8472  133.1675  157.4997 C.3     1  UNL1        0.0897
     33 C         143.3083  134.5160  157.1241 C.3     1  UNL1        0.0899
     34 N         142.2151  134.6290  156.1032 N.3     1  UNL1       -0.2665
     35 C         141.6610  133.3935  155.4578 C.3     1  UNL1        0.0899
     36 C         142.1999  132.0450  155.8335 C.3     1  UNL1        0.0897
@<TRIPOS>BOND
     1    30    31    1
     2    31    32    1
     3    32    33    1
     4    33    34    1
     5    34    29    1
     6    29     1    1
     7     1     2   ar
     8     2     3   ar
     9     3     4   ar
    10     4     5   ar
    11     5     6   ar
    12     5     7    1
    13     7     8    1
    14     8     9    2
    15     9    13    1
    16    13    14   ar
    17    14    15   ar
    18    15    16   ar
    19    16    18    1
    20    18    19    3
    21    19    20    1
    22    20    21    1
    23    21    23    1
    24    23    24   ar
    25    24    25   ar
    26    25    26   ar
    27    26    27   ar
    28    27    28   ar
    29    16    17   ar
    30     9    10    1
    31    10    11    2
    32    11    12    1
    33    34    35    1
    34    35    36    1
    35    36    31    1
    36     6     1   ar
    37    12     8    1
    38    12     4    1
    39    17    13   ar
    40    28    23   ar
    41    21    22    1
@<TRIPOS>MOLECULE
*****
 36 41 0 0 0
SMALL
GASTEIGER

@<TRIPOS>ATOM
      1 C         141.9127  137.3978  157.2481 C.ar    1  UNL1       -0.0065
      2 C         140.6175  137.7843  156.5979 C.ar    1  UNL1       -0.0032
      3 C         139.5969  138.5693  157.3675 C.ar    1  UNL1       -0.0026
      4 C         139.8717  138.9677  158.7873 C.ar    1  UNL1        0.0019
      5 C         141.1669  138.5812  159.4375 C.ar    1  UNL1       -0.0200
      6 C         142.1875  137.7962  158.6679 C.ar    1  UNL1       -0.0071
      7 C         141.1577  139.1115  160.8405 C.3     1  UNL1        0.0519
      8 C         139.8566  139.8259  161.0575 C.2     1  UNL1        0.0074
      9 C         139.0469  140.5951  162.0587 C.2     1  UNL1        0.0976
     10 N         137.7516  140.9817  161.4085 N.2     1  UNL1       -0.1526
     11 N         137.7609  140.4513  160.0055 N.2     1  UNL1       -0.1678
     12 C         139.0618  139.7370  159.7885 C.3     1  UNL1        0.1672
     13 C         139.4599  140.9206  163.4636 C.ar    1  UNL1        0.0265
     14 C         140.4283  141.9907  163.8723 C.ar    1  UNL1        0.0376
     15 S         140.5439  141.9647  165.3676 S.2     1  UNL1       -0.0780
     16 C         139.6469  140.8785  165.8830 C.ar    1  UNL1        0.0710
     17 C         138.9770  140.2332  164.7062 C.ar    1  UNL1        0.0168
     18 C         139.4538  140.5034  167.3224 C.1     1  UNL1       -0.0561
     19 C         139.2607  140.1283  168.7619 C.1     1  UNL1       -0.0640
     20 C         139.0676  139.7532  170.2013 C.3     1  UNL1        0.1654
     21 N         140.0540  140.2108  171.2345 N.pl3   1  UNL1       -0.3220
     22 H         139.9233  139.9708  172.1803 H       1  UNL1        0.1477
     23 C         141.2397  141.0342  170.8266 C.ar    1  UNL1        0.0453
     24 C         141.1324  142.5295  170.7752 C.ar    1  UNL1        0.0143
     25 C         142.3180  143.3529  170.3674 C.ar    1  UNL1        0.0013
     26 C         143.6108  142.6810  170.0109 C.ar    1  UNL1        0.0001
     27 C         143.7181  141.1858  170.0623 C.ar    1  UNL1        0.0013
     28 C         142.5325  140.3623  170.4701 C.ar    1  UNL1        0.0143
     29 C         142.9333  136.6127  156.4785 C.3     1  UNL1        0.0992
     30 C         142.4702  130.6422  156.1070 C.3     1  UNL1        0.0897
     31 N         142.5860  132.1348  156.1999 N.3     1  UNL1       -0.2691
     32 C         141.7467  133.0086  155.3156 C.3     1  UNL1        0.0897
     33 C         141.8625  134.5013  155.4084 C.3     1  UNL1        0.0899
     34 N         142.8175  135.1201  156.3856 N.3     1  UNL1       -0.2665
     35 C         143.6568  134.2463  157.2700 C.3     1  UNL1        0.0899
     36 C         143.5410  132.7537  157.1771 C.3     1  UNL1        0.0897
@<TRIPOS>BOND
     1    30    31    1
     2    31    32    1
     3    32    33    1
     4    33    34    1
     5    34    29    1
     6    29     1    1
     7     1     2   ar
     8     2     3   ar
     9     3     4   ar
    10     4     5   ar
    11     5     6   ar
    12     5     7    1
    13     7     8    1
    14     8     9    2
    15     9    13    1
    16    13    14   ar
    17    14    15   ar
    18    15    16   ar
    19    16    18    1
    20    18    19    3
    21    19    20    1
    22    20    21    1
    23    21    23    1
    24    23    24   ar
    25    24    25   ar
    26    25    26   ar
    27    26    27   ar
    28    27    28   ar
    29    16    17   ar
    30     9    10    1
    31    10    11    2
    32    11    12    1
    33    34    35    1
    34    35    36    1
    35    36    31    1
    36     6     1   ar
    37    12     8    1
    38    12     4    1
    39    17    13   ar
    40    28    23   ar
    41    21    22    1
@<TRIPOS>MOLECULE
*****
 36 41 0 0 0
SMALL
GASTEIGER

@<TRIPOS>ATOM
      1 C         143.1175  138.9303  164.5967 C.ar    1  UNL1       -0.0065
      2 C         144.1079  139.9793  164.1860 C.ar    1  UNL1       -0.0032
      3 C         144.3974  140.2092  162.7324 C.ar    1  UNL1       -0.0026
      4 C         143.6967  139.3901  161.6893 C.ar    1  UNL1        0.0019
      5 C         142.7063  138.3410  162.1000 C.ar    1  UNL1       -0.0200
      6 C         142.4168  138.1111  163.5537 C.ar    1  UNL1       -0.0071
      7 C         142.1746  137.6933  160.8559 C.3     1  UNL1        0.0519
      8 C         142.8363  138.3420  159.6764 C.2     1  UNL1        0.0074
      9 C         142.9165  138.3426  158.1785 C.2     1  UNL1        0.0976
     10 N         143.9069  139.3917  157.7679 N.2     1  UNL1       -0.1526
     11 N         144.4386  140.0394  159.0119 N.2     1  UNL1       -0.1678
     12 C         143.7770  139.3907  160.1914 C.3     1  UNL1        0.1672
     13 C         142.1423  137.4508  157.2537 C.ar    1  UNL1        0.0265
     14 C         140.7358  137.6762  156.7838 C.ar    1  UNL1        0.0376
     15 S         140.3629  136.5416  155.8761 S.2     1  UNL1       -0.0780
     16 C         141.5391  135.6151  155.7851 C.ar    1  UNL1        0.0710
     17 C         142.6388  136.1770  156.6365 C.ar    1  UNL1        0.0168
     18 C         141.6041  134.3490  154.9835 C.1     1  UNL1       -0.0561
     19 C         141.6690  133.0827  154.1819 C.1     1  UNL1       -0.0640
     20 C         141.7340  131.8166  153.3802 C.3     1  UNL1        0.1654
     21 N         142.4121  130.6043  153.9465 N.pl3   1  UNL1       -0.3220
     22 H         142.3553  129.7426  153.4738 H       1  UNL1        0.1477
     23 C         143.1767  130.7050  155.2331 C.ar    1  UNL1        0.0453
     24 C         142.7374  129.9154  156.4304 C.ar    1  UNL1        0.0143
     25 C         143.5019  130.0160  157.7170 C.ar    1  UNL1        0.0013
     26 C         144.7058  130.9063  157.8063 C.ar    1  UNL1        0.0001
     27 C         145.1452  131.6959  156.6090 C.ar    1  UNL1        0.0013
     28 C         144.3806  131.5953  155.3224 C.ar    1  UNL1        0.0143
     29 C         142.8279  138.7004  166.0505 C.3     1  UNL1        0.0992
     30 C         140.5088  143.1182  169.3827 C.3     1  UNL1        0.0897
     31 N         141.0886  142.0138  168.5497 N.3     1  UNL1       -0.2691
     32 C         140.6668  141.8527  167.1193 C.3     1  UNL1        0.0897
     33 C         141.2466  140.7483  166.2861 C.3     1  UNL1        0.0899
     34 N         142.2481  139.8048  166.8835 N.3     1  UNL1       -0.2665
     35 C         142.6699  139.9659  168.3140 C.3     1  UNL1        0.0899
     36 C         142.0901  141.0703  169.1470 C.3     1  UNL1        0.0897
@<TRIPOS>BOND
     1    30    31    1
     2    31    32    1
     3    32    33    1
     4    33    34    1
     5    34    29    1
     6    29     1    1
     7     1     2   ar
     8     2     3   ar
     9     3     4   ar
    10     4     5   ar
    11     5     6   ar
    12     5     7    1
    13     7     8    1
    14     8     9    2
    15     9    13    1
    16    13    14   ar
    17    14    15   ar
    18    15    16   ar
    19    16    18    1
    20    18    19    3
    21    19    20    1
    22    20    21    1
    23    21    23    1
    24    23    24   ar
    25    24    25   ar
    26    25    26   ar
    27    26    27   ar
    28    27    28   ar
    29    16    17   ar
    30     9    10    1
    31    10    11    2
    32    11    12    1
    33    34    35    1
    34    35    36    1
    35    36    31    1
    36     6     1   ar
    37    12     8    1
    38    12     4    1
    39    17    13   ar
    40    28    23   ar
    41    21    22    1
