@<TRIPOS>MOLECULE
*****
 35 39 0 0 0
SMALL
GASTEIGER

@<TRIPOS>ATOM
      1 C         139.5825  139.0813  160.4014 C.ar    1  UNL1        0.0597
      2 C         139.5599  138.2297  161.6360 C.ar    1  UNL1        0.0422
      3 C         138.8919  138.7321  162.8815 C.ar    1  UNL1        0.1485
      4 C         138.2466  140.0861  162.8924 C.ar    1  UNL1        0.0743
      5 C         138.2692  140.9377  161.6578 C.ar    1  UNL1        0.1417
      6 C         138.9372  140.4353  160.4123 C.ar    1  UNL1        0.0416
      7 N         141.7420  138.6616  159.0191 N.am    1  UNL1       -0.2644
      8 C         140.2506  138.5789  159.1558 C.2     1  UNL1        0.2508
      9 O         139.4271  137.9937  158.0470 O.2     1  UNL1       -0.2698
     10 H         142.2825  139.0457  159.7469 H       1  UNL1        0.1566
     11 C         143.9159  135.4563  155.4302 C.3     1  UNL1        0.1538
     12 N         143.4093  136.6859  156.1239 N.ar    1  UNL1       -0.2462
     13 C         143.4666  138.0864  155.5897 C.ar    1  UNL1        0.0981
     14 C         142.8490  138.9970  156.6093 C.ar    1  UNL1        0.0564
     15 C         142.4100  138.1592  157.7735 C.ar    1  UNL1        0.1557
     16 N         142.7562  136.7309  157.4735 N.ar    1  UNL1       -0.1539
     17 O         138.8693  137.8805  164.1162 O.3     1  UNL1       -0.4534
     18 C         139.0103  138.5154  165.4679 C.ar    1  UNL1        0.1453
     19 C         140.2851  139.2132  165.8395 C.ar    1  UNL1        0.0376
     20 C         140.4261  139.8481  167.1911 C.ar    1  UNL1        0.0076
     21 C         139.2922  139.7852  168.1712 C.ar    1  UNL1        0.0538
     22 C         138.0175  139.0875  167.7996 C.ar    1  UNL1        0.0076
     23 C         137.8765  138.4526  166.4479 C.ar    1  UNL1        0.0376
     24 C         139.4331  140.4201  169.5229 C.2     1  UNL1        0.2490
     25 O         139.1181  139.6307  170.7588 O.2     1  UNL1       -0.2699
     26 N         139.8891  141.8445  169.6386 N.am    1  UNL1       -0.2760
     27 C         140.2826  142.9148  168.6640 C.3     1  UNL1        0.0955
     28 C         140.5340  143.8588  169.8023 C.3     1  UNL1        0.0430
     29 C         140.1405  142.7885  170.7768 C.3     1  UNL1        0.0955
     30 O         137.6238  142.2918  161.6688 O.3     1  UNL1       -0.4764
     31 C         138.1277  143.3553  162.5988 C.3     1  UNL1        0.1978
     32 C         137.7691  143.5015  164.0480 C.3     1  UNL1        0.0782
     33 C         138.4985  144.6960  164.5878 C.3     1  UNL1        0.1461
     34 O         139.3078  145.2880  163.4721 O.3     1  UNL1       -0.3498
     35 C         139.0786  144.4595  162.2429 C.3     1  UNL1        0.1855
@<TRIPOS>BOND
     1    11    12    1
     2    12    13   ar
     3    13    14   ar
     4    14    15   ar
     5    15     7    1
     6     7     8   am
     7     8     9    2
     8     8     1    1
     9     1     2   ar
    10     2     3   ar
    11     3    17    1
    12    17    18    1
    13    18    19   ar
    14    19    20   ar
    15    20    21   ar
    16    21    24    1
    17    24    25    2
    18    24    26   am
    19    26    27    1
    20    27    28    1
    21    28    29    1
    22    21    22   ar
    23    22    23   ar
    24     3     4   ar
    25     4     5   ar
    26     5    30    1
    27    31    30    1
    28    31    32    1
    29    32    33    1
    30    33    34    1
    31    34    35    1
    32     5     6   ar
    33    15    16   ar
    34    16    12   ar
    35     6     1   ar
    36    23    18   ar
    37    35    31    1
    38    29    26    1
    39     7    10    1
@<TRIPOS>MOLECULE
*****
 35 39 0 0 0
SMALL
GASTEIGER

@<TRIPOS>ATOM
      1 C         138.7318  139.9518  160.0287 C.ar    1  UNL1        0.0597
      2 C         138.9490  138.9569  161.1300 C.ar    1  UNL1        0.0422
      3 C         138.6717  139.3410  162.5532 C.ar    1  UNL1        0.1485
      4 C         138.1773  140.7202  162.8751 C.ar    1  UNL1        0.0743
      5 C         137.9602  141.7151  161.7738 C.ar    1  UNL1        0.1417
      6 C         138.2375  141.3309  160.3506 C.ar    1  UNL1        0.0416
      7 N         139.4671  138.1770  158.2796 N.am    1  UNL1       -0.2644
      8 C         139.0091  139.5677  158.6055 C.2     1  UNL1        0.2508
      9 O         138.8283  140.5742  157.5081 O.2     1  UNL1       -0.2698
     10 H         139.5858  137.5164  158.9998 H       1  UNL1        0.1566
     11 C         138.7918  136.8038  153.2260 C.3     1  UNL1        0.1538
     12 N         139.4340  137.1616  154.5334 N.ar    1  UNL1       -0.2462
     13 C         140.9081  137.2418  154.7990 C.ar    1  UNL1        0.0981
     14 C         141.1000  137.6319  156.2347 C.ar    1  UNL1        0.0564
     15 C         139.7444  137.7928  156.8563 C.ar    1  UNL1        0.1557
     16 N         138.7147  137.5022  155.8049 N.ar    1  UNL1       -0.1539
     17 O         138.8888  138.3461  163.6546 O.3     1  UNL1       -0.4534
     18 C         139.1464  138.8207  165.0540 C.ar    1  UNL1        0.1453
     19 C         138.0104  138.9413  166.0261 C.ar    1  UNL1        0.0376
     20 C         138.2680  139.4159  167.4256 C.ar    1  UNL1        0.0076
     21 C         139.6616  139.7699  167.8529 C.ar    1  UNL1        0.0538
     22 C         140.7976  139.6493  166.8808 C.ar    1  UNL1        0.0076
     23 C         140.5400  139.1747  165.4814 C.ar    1  UNL1        0.0376
     24 C         139.9192  140.2446  169.2523 C.2     1  UNL1        0.2490
     25 O         139.9155  139.2657  170.3889 O.2     1  UNL1       -0.2699
     26 N         140.1805  141.6981  169.5151 N.am    1  UNL1       -0.2760
     27 C         140.2617  142.9318  168.6657 C.3     1  UNL1        0.0955
     28 C         140.5501  143.7537  169.8869 C.3     1  UNL1        0.0430
     29 C         140.4690  142.5200  170.7363 C.3     1  UNL1        0.0955
     30 O         137.4658  143.0942  162.0957 O.3     1  UNL1       -0.4764
     31 C         138.1631  143.9165  163.1386 C.3     1  UNL1        0.1978
     32 C         137.7762  144.0194  164.5842 C.3     1  UNL1        0.0782
     33 C         138.7436  144.9468  165.2582 C.3     1  UNL1        0.1461
     34 O         139.7285  145.4170  164.2290 O.3     1  UNL1       -0.3498
     35 C         139.3697  144.7803  162.9191 C.3     1  UNL1        0.1855
@<TRIPOS>BOND
     1    11    12    1
     2    12    13   ar
     3    13    14   ar
     4    14    15   ar
     5    15     7    1
     6     7     8   am
     7     8     9    2
     8     8     1    1
     9     1     2   ar
    10     2     3   ar
    11     3    17    1
    12    17    18    1
    13    18    19   ar
    14    19    20   ar
    15    20    21   ar
    16    21    24    1
    17    24    25    2
    18    24    26   am
    19    26    27    1
    20    27    28    1
    21    28    29    1
    22    21    22   ar
    23    22    23   ar
    24     3     4   ar
    25     4     5   ar
    26     5    30    1
    27    31    30    1
    28    31    32    1
    29    32    33    1
    30    33    34    1
    31    34    35    1
    32     5     6   ar
    33    15    16   ar
    34    16    12   ar
    35     6     1   ar
    36    23    18   ar
    37    35    31    1
    38    29    26    1
    39     7    10    1
@<TRIPOS>MOLECULE
*****
 35 39 0 0 0
SMALL
GASTEIGER

@<TRIPOS>ATOM
      1 C         141.8324  138.4603  158.5573 C.ar    1  UNL1        0.0597
      2 C         140.4919  138.3201  159.2156 C.ar    1  UNL1        0.0422
      3 C         140.1345  139.1924  160.3823 C.ar    1  UNL1        0.1485
      4 C         141.1176  140.2048  160.8909 C.ar    1  UNL1        0.0743
      5 C         142.4581  140.3449  160.2326 C.ar    1  UNL1        0.1417
      6 C         142.8155  139.4726  159.0658 C.ar    1  UNL1        0.0416
      7 N         141.1629  136.6684  156.7992 N.am    1  UNL1       -0.2644
      8 C         142.1898  137.5880  157.3905 C.2     1  UNL1        0.2508
      9 O         143.5742  137.6354  156.8150 O.2     1  UNL1       -0.2698
     10 H         140.2543  136.6372  157.1769 H       1  UNL1        0.1566
     11 C         141.2768  134.5433  151.9669 C.3     1  UNL1        0.1538
     12 N         141.5727  134.8193  153.4112 N.ar    1  UNL1       -0.2462
     13 C         142.5682  134.0883  154.2626 C.ar    1  UNL1        0.0981
     14 C         142.5358  134.6921  155.6354 C.ar    1  UNL1        0.0564
     15 C         141.5204  135.7961  155.6323 C.ar    1  UNL1        0.1557
     16 N         140.9252  135.8747  154.2577 N.ar    1  UNL1       -0.1539
     17 O         138.7939  139.0523  161.0406 O.3     1  UNL1       -0.4534
     18 C         138.6885  139.0612  162.5369 C.ar    1  UNL1        0.1453
     19 C         138.2212  140.2963  163.2485 C.ar    1  UNL1        0.0376
     20 C         138.1158  140.3052  164.7448 C.ar    1  UNL1        0.0076
     21 C         138.4778  139.0791  165.5295 C.ar    1  UNL1        0.0538
     22 C         138.9452  137.8441  164.8179 C.ar    1  UNL1        0.0076
     23 C         139.0506  137.8352  163.3216 C.ar    1  UNL1        0.0376
     24 C         138.3725  139.0880  167.0257 C.2     1  UNL1        0.2490
     25 O         137.3687  138.2099  167.7122 O.2     1  UNL1       -0.2699
     26 N         139.2710  139.9752  167.8356 N.am    1  UNL1       -0.2760
     27 C         140.3591  140.9573  167.5171 C.3     1  UNL1        0.0955
     28 C         140.5416  141.2297  168.9809 C.3     1  UNL1        0.0430
     29 C         139.4535  140.2476  169.2993 C.3     1  UNL1        0.0955
     30 O         143.4412  141.3572  160.7411 O.3     1  UNL1       -0.4764
     31 C         144.2159  141.0856  161.9966 C.3     1  UNL1        0.1978
     32 C         145.0378  142.0826  162.7586 C.3     1  UNL1        0.0782
     33 C         145.6345  141.3824  163.9435 C.3     1  UNL1        0.1461
     34 O         145.1813  139.9528  163.9137 O.3     1  UNL1       -0.3498
     35 C         144.3046  139.7693  162.7105 C.3     1  UNL1        0.1855
@<TRIPOS>BOND
     1    11    12    1
     2    12    13   ar
     3    13    14   ar
     4    14    15   ar
     5    15     7    1
     6     7     8   am
     7     8     9    2
     8     8     1    1
     9     1     2   ar
    10     2     3   ar
    11     3    17    1
    12    17    18    1
    13    18    19   ar
    14    19    20   ar
    15    20    21   ar
    16    21    24    1
    17    24    25    2
    18    24    26   am
    19    26    27    1
    20    27    28    1
    21    28    29    1
    22    21    22   ar
    23    22    23   ar
    24     3     4   ar
    25     4     5   ar
    26     5    30    1
    27    31    30    1
    28    31    32    1
    29    32    33    1
    30    33    34    1
    31    34    35    1
    32     5     6   ar
    33    15    16   ar
    34    16    12   ar
    35     6     1   ar
    36    23    18   ar
    37    35    31    1
    38    29    26    1
    39     7    10    1
@<TRIPOS>MOLECULE
*****
 35 39 0 0 0
SMALL
GASTEIGER

@<TRIPOS>ATOM
      1 C         141.3654  144.4274  159.6100 C.ar    1  UNL1        0.0597
      2 C         140.3977  144.5962  160.7436 C.ar    1  UNL1        0.0422
      3 C         140.4654  143.6810  161.9301 C.ar    1  UNL1        0.1485
      4 C         141.5009  142.5971  161.9830 C.ar    1  UNL1        0.0743
      5 C         142.4686  142.4283  160.8494 C.ar    1  UNL1        0.1417
      6 C         142.4008  143.3435  159.6629 C.ar    1  UNL1        0.0416
      7 N         140.0471  145.4088  157.5977 N.am    1  UNL1       -0.2644
      8 C         141.2976  145.3426  158.4234 C.2     1  UNL1        0.2508
      9 O         142.4804  146.1917  158.0626 O.2     1  UNL1       -0.2698
     10 H         139.2708  144.8515  157.8345 H       1  UNL1        0.1566
     11 C         140.9666  147.5859  152.8760 C.3     1  UNL1        0.1538
     12 N         140.4020  147.3247  154.2408 N.ar    1  UNL1       -0.2462
     13 C         139.3481  148.1400  154.9298 C.ar    1  UNL1        0.0981
     14 C         139.0869  147.5215  156.2712 C.ar    1  UNL1        0.0564
     15 C         139.9794  146.3240  156.4111 C.ar    1  UNL1        0.1557
     16 N         140.7921  146.2024  155.1563 N.ar    1  UNL1       -0.1539
     17 O         139.4977  143.8498  163.0637 O.3     1  UNL1       -0.4534
     18 C         139.5888  142.9582  164.2665 C.ar    1  UNL1        0.1453
     19 C         140.1908  143.4752  165.5395 C.ar    1  UNL1        0.0376
     20 C         140.2819  142.5836  166.7423 C.ar    1  UNL1        0.0076
     21 C         139.7709  141.1750  166.6722 C.ar    1  UNL1        0.0538
     22 C         139.1689  140.6581  165.3993 C.ar    1  UNL1        0.0076
     23 C         139.0778  141.5497  164.1964 C.ar    1  UNL1        0.0376
     24 C         139.8619  140.2834  167.8750 C.2     1  UNL1        0.2490
     25 O         138.6951  139.4237  168.2614 O.2     1  UNL1       -0.2699
     26 N         141.1200  140.2515  168.6914 N.am    1  UNL1       -0.2760
     27 C         142.4487  140.9439  168.6199 C.3     1  UNL1        0.0955
     28 C         142.8990  140.2063  169.8460 C.3     1  UNL1        0.0430
     29 C         141.5702  139.5139  169.9175 C.3     1  UNL1        0.0955
     30 O         143.5041  141.3443  160.9023 O.3     1  UNL1       -0.4764
     31 C         144.3171  141.1438  162.1468 C.3     1  UNL1        0.1978
     32 C         144.3021  139.9265  163.0231 C.3     1  UNL1        0.0782
     33 C         145.2636  140.1557  164.1515 C.3     1  UNL1        0.1461
     34 O         145.8727  141.5148  163.9726 O.3     1  UNL1       -0.3498
     35 C         145.2877  142.1255  162.7336 C.3     1  UNL1        0.1855
@<TRIPOS>BOND
     1    11    12    1
     2    12    13   ar
     3    13    14   ar
     4    14    15   ar
     5    15     7    1
     6     7     8   am
     7     8     9    2
     8     8     1    1
     9     1     2   ar
    10     2     3   ar
    11     3    17    1
    12    17    18    1
    13    18    19   ar
    14    19    20   ar
    15    20    21   ar
    16    21    24    1
    17    24    25    2
    18    24    26   am
    19    26    27    1
    20    27    28    1
    21    28    29    1
    22    21    22   ar
    23    22    23   ar
    24     3     4   ar
    25     4     5   ar
    26     5    30    1
    27    31    30    1
    28    31    32    1
    29    32    33    1
    30    33    34    1
    31    34    35    1
    32     5     6   ar
    33    15    16   ar
    34    16    12   ar
    35     6     1   ar
    36    23    18   ar
    37    35    31    1
    38    29    26    1
    39     7    10    1
@<TRIPOS>MOLECULE
*****
 35 39 0 0 0
SMALL
GASTEIGER

@<TRIPOS>ATOM
      1 C         140.4527  142.0896  159.4058 C.ar    1  UNL1        0.0597
      2 C         139.4706  141.1349  160.0172 C.ar    1  UNL1        0.0422
      3 C         139.9609  139.9642  160.8166 C.ar    1  UNL1        0.1485
      4 C         141.4333  139.7482  161.0044 C.ar    1  UNL1        0.0743
      5 C         142.4154  140.7029  160.3930 C.ar    1  UNL1        0.1417
      6 C         141.9251  141.8736  159.5936 C.ar    1  UNL1        0.0416
      7 N         139.8526  143.1564  157.1141 N.am    1  UNL1       -0.2644
      8 C         139.9624  143.2604  158.6064 C.2     1  UNL1        0.2508
      9 O         139.5819  144.5351  159.2994 O.2     1  UNL1       -0.2698
     10 H         140.1023  142.3197  156.6592 H       1  UNL1        0.1566
     11 C         139.6161  147.8563  154.7193 C.3     1  UNL1        0.1538
     12 N         139.2536  146.4875  155.2139 N.ar    1  UNL1       -0.2462
     13 C         137.9619  145.7700  154.9552 C.ar    1  UNL1        0.0981
     14 C         138.0291  144.4347  155.6356 C.ar    1  UNL1        0.0564
     15 C         139.3623  144.3272  156.3147 C.ar    1  UNL1        0.1557
     16 N         140.1190  145.5958  156.0541 N.ar    1  UNL1       -0.1539
     17 O         138.9788  139.0094  161.4281 O.3     1  UNL1       -0.4534
     18 C         138.7668  139.0002  162.9130 C.ar    1  UNL1        0.1453
     19 C         139.0116  137.7455  163.6978 C.ar    1  UNL1        0.0376
     20 C         138.7996  137.7363  165.1827 C.ar    1  UNL1        0.0076
     21 C         138.3429  138.9819  165.8829 C.ar    1  UNL1        0.0538
     22 C         138.0981  140.2365  165.0980 C.ar    1  UNL1        0.0076
     23 C         138.3101  140.2457  163.6131 C.ar    1  UNL1        0.0376
     24 C         138.1309  138.9727  167.3678 C.2     1  UNL1        0.2490
     25 O         137.1128  138.0533  167.9744 O.2     1  UNL1       -0.2699
     26 N         138.9371  139.8830  168.2461 N.am    1  UNL1       -0.2760
     27 C         140.0094  140.9058  168.0133 C.3     1  UNL1        0.0955
     28 C         140.0772  141.1704  169.4883 C.3     1  UNL1        0.0430
     29 C         139.0050  140.1476  169.7210 C.3     1  UNL1        0.0955
     30 O         143.8879  140.4869  160.5808 O.3     1  UNL1       -0.4764
     31 C         144.5050  140.6646  161.9363 C.3     1  UNL1        0.1978
     32 C         144.5031  139.6546  163.0453 C.3     1  UNL1        0.0782
     33 C         145.2294  140.2493  164.2153 C.3     1  UNL1        0.1461
     34 O         145.6802  141.6270  163.8294 O.3     1  UNL1       -0.3498
     35 C         145.2325  141.8837  162.4209 C.3     1  UNL1        0.1855
@<TRIPOS>BOND
     1    11    12    1
     2    12    13   ar
     3    13    14   ar
     4    14    15   ar
     5    15     7    1
     6     7     8   am
     7     8     9    2
     8     8     1    1
     9     1     2   ar
    10     2     3   ar
    11     3    17    1
    12    17    18    1
    13    18    19   ar
    14    19    20   ar
    15    20    21   ar
    16    21    24    1
    17    24    25    2
    18    24    26   am
    19    26    27    1
    20    27    28    1
    21    28    29    1
    22    21    22   ar
    23    22    23   ar
    24     3     4   ar
    25     4     5   ar
    26     5    30    1
    27    31    30    1
    28    31    32    1
    29    32    33    1
    30    33    34    1
    31    34    35    1
    32     5     6   ar
    33    15    16   ar
    34    16    12   ar
    35     6     1   ar
    36    23    18   ar
    37    35    31    1
    38    29    26    1
    39     7    10    1
@<TRIPOS>MOLECULE
*****
 35 39 0 0 0
SMALL
GASTEIGER

@<TRIPOS>ATOM
      1 C         141.1783  138.7408  158.2859 C.ar    1  UNL1        0.0597
      2 C         139.9700  138.4264  159.1171 C.ar    1  UNL1        0.0422
      3 C         139.3693  139.4824  159.9968 C.ar    1  UNL1        0.1485
      4 C         139.9771  140.8530  160.0453 C.ar    1  UNL1        0.0743
      5 C         141.1854  141.1674  159.2141 C.ar    1  UNL1        0.1417
      6 C         141.7860  140.1114  158.3344 C.ar    1  UNL1        0.0416
      7 N         140.8891  136.7624  156.6269 N.am    1  UNL1       -0.2644
      8 C         141.7790  137.6847  157.4061 C.2     1  UNL1        0.2508
      9 O         143.2697  137.5511  157.3056 O.2     1  UNL1       -0.2698
     10 H         139.9107  136.8501  156.6929 H       1  UNL1        0.1566
     11 C         143.3213  132.3663  155.0023 C.3     1  UNL1        0.1538
     12 N         142.6077  133.6856  155.0004 N.ar    1  UNL1       -0.2462
     13 C         142.2204  134.4768  153.7862 C.ar    1  UNL1        0.0981
     14 C         141.5294  135.7257  154.2478 C.ar    1  UNL1        0.0564
     15 C         141.4898  135.7063  155.7471 C.ar    1  UNL1        0.1557
     16 N         142.1561  134.4455  156.2123 N.ar    1  UNL1       -0.1539
     17 O         138.1609  139.1680  160.8280 O.3     1  UNL1       -0.4534
     18 C         138.2612  139.1615  162.3247 C.ar    1  UNL1        0.1453
     19 C         138.7382  137.9317  163.0390 C.ar    1  UNL1        0.0376
     20 C         138.8385  137.9252  164.5357 C.ar    1  UNL1        0.0076
     21 C         138.4617  139.1484  165.3179 C.ar    1  UNL1        0.0538
     22 C         137.9848  140.3781  164.6036 C.ar    1  UNL1        0.0076
     23 C         137.8845  140.3846  163.1069 C.ar    1  UNL1        0.0376
     24 C         138.5620  139.1419  166.8146 C.2     1  UNL1        0.2490
     25 O         137.5587  138.3816  167.6302 O.2     1  UNL1       -0.2699
     26 N         139.6657  139.8957  167.4956 N.am    1  UNL1       -0.2760
     27 C         140.8148  140.7417  167.0332 C.3     1  UNL1        0.0955
     28 C         141.2265  140.9617  168.4588 C.3     1  UNL1        0.0430
     29 C         140.0774  140.1156  168.9211 C.3     1  UNL1        0.0955
     30 O         141.7931  142.5379  159.2625 O.3     1  UNL1       -0.4764
     31 C         141.0883  143.6457  159.9879 C.3     1  UNL1        0.1978
     32 C         141.2358  143.9810  161.4425 C.3     1  UNL1        0.0782
     33 C         140.3509  145.1552  161.7396 C.3     1  UNL1        0.1461
     34 O         139.6565  145.5456  160.4685 O.3     1  UNL1       -0.3498
     35 C         140.1122  144.6127  159.3860 C.3     1  UNL1        0.1855
@<TRIPOS>BOND
     1    11    12    1
     2    12    13   ar
     3    13    14   ar
     4    14    15   ar
     5    15     7    1
     6     7     8   am
     7     8     9    2
     8     8     1    1
     9     1     2   ar
    10     2     3   ar
    11     3    17    1
    12    17    18    1
    13    18    19   ar
    14    19    20   ar
    15    20    21   ar
    16    21    24    1
    17    24    25    2
    18    24    26   am
    19    26    27    1
    20    27    28    1
    21    28    29    1
    22    21    22   ar
    23    22    23   ar
    24     3     4   ar
    25     4     5   ar
    26     5    30    1
    27    31    30    1
    28    31    32    1
    29    32    33    1
    30    33    34    1
    31    34    35    1
    32     5     6   ar
    33    15    16   ar
    34    16    12   ar
    35     6     1   ar
    36    23    18   ar
    37    35    31    1
    38    29    26    1
    39     7    10    1
@<TRIPOS>MOLECULE
*****
 35 39 0 0 0
SMALL
GASTEIGER

@<TRIPOS>ATOM
      1 C         144.0758  141.2769  158.1460 C.ar    1  UNL1        0.0597
      2 C         143.7711  140.0130  158.8942 C.ar    1  UNL1        0.0422
      3 C         142.6837  139.9965  159.9272 C.ar    1  UNL1        0.1485
      4 C         141.9009  141.2439  160.2121 C.ar    1  UNL1        0.0743
      5 C         142.2055  142.5078  159.4639 C.ar    1  UNL1        0.1417
      6 C         143.2929  142.5243  158.4309 C.ar    1  UNL1        0.0416
      7 N         145.9714  142.5380  156.8945 N.am    1  UNL1       -0.2644
      8 C         145.1632  141.2934  157.1129 C.2     1  UNL1        0.2508
      9 O         145.4425  140.0652  156.2983 O.2     1  UNL1       -0.2698
     10 H         145.7881  143.3441  157.4292 H       1  UNL1        0.1566
     11 C         150.5912  141.7765  154.4537 C.3     1  UNL1        0.1538
     12 N         149.1824  142.2045  154.7395 N.ar    1  UNL1       -0.2462
     13 C         148.2820  142.9555  153.8038 C.ar    1  UNL1        0.0981
     14 C         146.9696  143.1719  154.4973 C.ar    1  UNL1        0.0564
     15 C         147.0588  142.5546  155.8614 C.ar    1  UNL1        0.1557
     16 N         148.4264  141.9567  156.0112 N.ar    1  UNL1       -0.1539
     17 O         142.3791  138.7326  160.6754 O.3     1  UNL1       -0.4534
     18 C         142.6314  138.6558  162.1520 C.ar    1  UNL1        0.1453
     19 C         141.6469  137.9618  163.0460 C.ar    1  UNL1        0.0376
     20 C         141.8993  137.8850  164.5227 C.ar    1  UNL1        0.0076
     21 C         143.1361  138.5022  165.1052 C.ar    1  UNL1        0.0538
     22 C         144.1206  139.1961  164.2112 C.ar    1  UNL1        0.0076
     23 C         143.8682  139.2729  162.7346 C.ar    1  UNL1        0.0376
     24 C         143.3885  138.4254  166.5819 C.2     1  UNL1        0.2490
     25 O         144.4489  137.5081  167.1148 O.2     1  UNL1       -0.2699
     26 N         142.5804  139.2659  167.5256 N.am    1  UNL1       -0.2760
     27 C         141.4730  140.2661  167.3725 C.3     1  UNL1        0.0955
     28 C         141.4376  140.4545  168.8602 C.3     1  UNL1        0.0430
     29 C         142.5449  139.4544  169.0133 C.3     1  UNL1        0.0955
     30 O         141.4227  143.7552  159.7488 O.3     1  UNL1       -0.4764
     31 C         141.3648  144.3020  161.1444 C.3     1  UNL1        0.1978
     32 C         142.5272  144.4565  162.0798 C.3     1  UNL1        0.0782
     33 C         142.0151  145.0403  163.3632 C.3     1  UNL1        0.1461
     34 O         140.5361  145.2467  163.2209 O.3     1  UNL1       -0.3498
     35 C         140.1342  144.7904  161.8497 C.3     1  UNL1        0.1855
@<TRIPOS>BOND
     1    11    12    1
     2    12    13   ar
     3    13    14   ar
     4    14    15   ar
     5    15     7    1
     6     7     8   am
     7     8     9    2
     8     8     1    1
     9     1     2   ar
    10     2     3   ar
    11     3    17    1
    12    17    18    1
    13    18    19   ar
    14    19    20   ar
    15    20    21   ar
    16    21    24    1
    17    24    25    2
    18    24    26   am
    19    26    27    1
    20    27    28    1
    21    28    29    1
    22    21    22   ar
    23    22    23   ar
    24     3     4   ar
    25     4     5   ar
    26     5    30    1
    27    31    30    1
    28    31    32    1
    29    32    33    1
    30    33    34    1
    31    34    35    1
    32     5     6   ar
    33    15    16   ar
    34    16    12   ar
    35     6     1   ar
    36    23    18   ar
    37    35    31    1
    38    29    26    1
    39     7    10    1
@<TRIPOS>MOLECULE
*****
 35 39 0 0 0
SMALL
GASTEIGER

@<TRIPOS>ATOM
      1 C         141.7484  139.9415  160.0754 C.ar    1  UNL1        0.0597
      2 C         142.7951  139.8441  161.1454 C.ar    1  UNL1        0.0422
      3 C         142.8407  140.8634  162.2449 C.ar    1  UNL1        0.1485
      4 C         141.8396  141.9801  162.2744 C.ar    1  UNL1        0.0743
      5 C         140.7930  142.0775  161.2044 C.ar    1  UNL1        0.1417
      6 C         140.7473  141.0583  160.1049 C.ar    1  UNL1        0.0416
      7 N         142.9742  138.4618  158.3267 N.am    1  UNL1       -0.2644
      8 C         141.7027  138.9222  158.9759 C.2     1  UNL1        0.2508
      9 O         140.3856  138.3633  158.5255 O.2     1  UNL1       -0.2698
     10 H         143.8386  138.8287  158.6223 H       1  UNL1        0.1566
     11 C         142.8724  133.8524  155.7532 C.3     1  UNL1        0.1538
     12 N         142.8817  135.3238  156.0442 N.ar    1  UNL1       -0.2462
     13 C         142.8347  136.4243  155.0260 C.ar    1  UNL1        0.0981
     14 C         142.8636  137.7338  155.7571 C.ar    1  UNL1        0.0564
     15 C         142.9285  137.4425  157.2271 C.ar    1  UNL1        0.1557
     16 N         142.9397  135.9531  157.4046 N.ar    1  UNL1       -0.1539
     17 O         143.8874  140.7660  163.3150 O.3     1  UNL1       -0.4534
     18 C         143.4812  140.5747  164.7462 C.ar    1  UNL1        0.1453
     19 C         143.2083  139.1960  165.2705 C.ar    1  UNL1        0.0376
     20 C         142.8022  139.0047  166.7018 C.ar    1  UNL1        0.0076
     21 C         142.6689  140.1921  167.6087 C.ar    1  UNL1        0.0538
     22 C         142.9417  141.5707  167.0844 C.ar    1  UNL1        0.0076
     23 C         143.3479  141.7620  165.6531 C.ar    1  UNL1        0.0376
     24 C         142.2627  140.0008  169.0399 C.2     1  UNL1        0.2490
     25 O         143.2982  139.6825  170.0773 O.2     1  UNL1       -0.2699
     26 N         140.8208  140.1279  169.4337 N.am    1  UNL1       -0.2760
     27 C         139.5444  140.4258  168.7045 C.3     1  UNL1        0.0955
     28 C         138.7818  140.3075  169.9908 C.3     1  UNL1        0.0430
     29 C         140.0583  140.0096  170.7201 C.3     1  UNL1        0.0955
     30 O         139.7919  143.1942  161.2339 O.3     1  UNL1       -0.4764
     31 C         139.2289  143.6624  162.5430 C.3     1  UNL1        0.1978
     32 C         138.0538  143.0673  163.2607 C.3     1  UNL1        0.0782
     33 C         137.8407  143.8450  164.5256 C.3     1  UNL1        0.1461
     34 O         138.8842  144.9207  164.5896 O.3     1  UNL1       -0.3498
     35 C         139.7421  144.8079  163.3644 C.3     1  UNL1        0.1855
@<TRIPOS>BOND
     1    11    12    1
     2    12    13   ar
     3    13    14   ar
     4    14    15   ar
     5    15     7    1
     6     7     8   am
     7     8     9    2
     8     8     1    1
     9     1     2   ar
    10     2     3   ar
    11     3    17    1
    12    17    18    1
    13    18    19   ar
    14    19    20   ar
    15    20    21   ar
    16    21    24    1
    17    24    25    2
    18    24    26   am
    19    26    27    1
    20    27    28    1
    21    28    29    1
    22    21    22   ar
    23    22    23   ar
    24     3     4   ar
    25     4     5   ar
    26     5    30    1
    27    31    30    1
    28    31    32    1
    29    32    33    1
    30    33    34    1
    31    34    35    1
    32     5     6   ar
    33    15    16   ar
    34    16    12   ar
    35     6     1   ar
    36    23    18   ar
    37    35    31    1
    38    29    26    1
    39     7    10    1
@<TRIPOS>MOLECULE
*****
 35 39 0 0 0
SMALL
GASTEIGER

@<TRIPOS>ATOM
      1 C         139.9475  138.9617  160.0490 C.ar    1  UNL1        0.0597
      2 C         138.8877  139.2611  161.0674 C.ar    1  UNL1        0.0422
      3 C         139.2228  139.2323  162.5292 C.ar    1  UNL1        0.1485
      4 C         140.6176  138.9041  162.9726 C.ar    1  UNL1        0.0743
      5 C         141.6775  138.6047  161.9542 C.ar    1  UNL1        0.1417
      6 C         141.3424  138.6335  160.4925 C.ar    1  UNL1        0.0416
      7 N         138.9581  140.2016  157.9914 N.am    1  UNL1       -0.2644
      8 C         139.6125  138.9905  158.5871 C.2     1  UNL1        0.2508
      9 O         139.9320  137.8082  157.7211 O.2     1  UNL1       -0.2698
     10 H         138.7484  140.9776  158.5598 H       1  UNL1        0.1566
     11 C         136.5530  139.3290  153.3725 C.3     1  UNL1        0.1538
     12 N         137.5176  139.8293  154.4064 N.ar    1  UNL1       -0.2462
     13 C         138.6976  140.7202  154.1535 C.ar    1  UNL1        0.0981
     14 C         139.3809  140.9681  155.4658 C.ar    1  UNL1        0.0564
     15 C         138.6231  140.2304  156.5295 C.ar    1  UNL1        0.1557
     16 N         137.4715  139.5266  155.8748 N.ar    1  UNL1       -0.1539
     17 O         138.1629  139.5318  163.5476 O.3     1  UNL1       -0.4534
     18 C         138.5454  139.7854  164.9757 C.ar    1  UNL1        0.1453
     19 C         138.1391  138.8147  166.0447 C.ar    1  UNL1        0.0376
     20 C         138.5216  139.0684  167.4728 C.ar    1  UNL1        0.0076
     21 C         139.3104  140.2928  167.8318 C.ar    1  UNL1        0.0538
     22 C         139.7166  141.2634  166.7628 C.ar    1  UNL1        0.0076
     23 C         139.3342  141.0097  165.3347 C.ar    1  UNL1        0.0376
     24 C         139.6929  140.5464  169.2599 C.2     1  UNL1        0.2490
     25 O         138.6293  140.7893  170.2893 O.2     1  UNL1       -0.2699
     26 N         141.1389  140.5572  169.6584 N.am    1  UNL1       -0.2760
     27 C         142.4395  140.3620  168.9370 C.3     1  UNL1        0.0955
     28 C         143.1839  140.5724  170.2222 C.3     1  UNL1        0.0430
     29 C         141.8834  140.7675  170.9436 C.3     1  UNL1        0.0955
     30 O         143.0723  138.2765  162.3977 O.3     1  UNL1       -0.4764
     31 C         144.0044  139.3748  162.8157 C.3     1  UNL1        0.1978
     32 C         144.3377  140.6000  162.0171 C.3     1  UNL1        0.0782
     33 C         145.3062  141.4233  162.8137 C.3     1  UNL1        0.1461
     34 O         145.5714  140.7068  164.1046 O.3     1  UNL1       -0.3498
     35 C         144.7669  139.4408  164.1059 C.3     1  UNL1        0.1855
@<TRIPOS>BOND
     1    11    12    1
     2    12    13   ar
     3    13    14   ar
     4    14    15   ar
     5    15     7    1
     6     7     8   am
     7     8     9    2
     8     8     1    1
     9     1     2   ar
    10     2     3   ar
    11     3    17    1
    12    17    18    1
    13    18    19   ar
    14    19    20   ar
    15    20    21   ar
    16    21    24    1
    17    24    25    2
    18    24    26   am
    19    26    27    1
    20    27    28    1
    21    28    29    1
    22    21    22   ar
    23    22    23   ar
    24     3     4   ar
    25     4     5   ar
    26     5    30    1
    27    31    30    1
    28    31    32    1
    29    32    33    1
    30    33    34    1
    31    34    35    1
    32     5     6   ar
    33    15    16   ar
    34    16    12   ar
    35     6     1   ar
    36    23    18   ar
    37    35    31    1
    38    29    26    1
    39     7    10    1
