@<TRIPOS>MOLECULE
*****
 29 33 0 0 0
SMALL
GASTEIGER

@<TRIPOS>ATOM
      1 C         139.2486  139.9418  166.3925 C.ar    1  UNL1        0.0015
      2 C         139.1751  138.5241  165.9076 C.ar    1  UNL1        0.0031
      3 C         138.7557  138.2348  164.4968 C.ar    1  UNL1        0.0366
      4 C         138.4097  139.3630  163.5709 C.ar    1  UNL1        0.1363
      5 C         138.4831  140.7806  164.0557 C.ar    1  UNL1        0.0329
      6 C         138.9026  141.0700  165.4665 C.ar    1  UNL1        0.0006
      7 C         138.1371  141.9088  163.1297 C.3     1  UNL1        0.1260
      8 C         137.8227  143.1338  162.3232 C.3     1  UNL1        0.0918
      9 S         138.0291  144.3325  163.2012 S.3     1  UNL1       -0.0785
     10 C         138.4711  143.8482  164.5503 C.2     1  UNL1        0.1483
     11 N         138.7902  144.7103  165.7355 N.pl3   1  UNL1       -0.3380
     12 N         138.5378  142.3503  164.5062 N.2     1  UNL1       -0.2497
     13 C         137.7177  141.6194  161.7189 C.3     1  UNL1        0.1182
     14 C         137.8142  141.3046  161.9773 C.3     1  UNL1        0.1503
     15 O         137.7127  141.6355  161.7057 O.3     1  UNL1       -0.3532
     16 C         137.8142  141.3046  161.9773 C.3     1  UNL1        0.1503
     17 C         137.6442  140.2019  161.2341 C.3     1  UNL1        0.2122
     18 O         137.9903  139.0736  162.1601 O.3     1  UNL1       -0.4755
     19 H         138.7163  145.6896  165.6661 H       1  UNL1        0.1442
     20 H         139.0737  144.2969  166.5829 H       1  UNL1        0.1442
     21 C         141.3900  141.2146  169.4818 C.ar    1  UNL1        0.0608
     22 C         140.5070  140.8099  170.6248 C.ar    1  UNL1        0.1071
     23 N         139.2045  140.1157  170.3570 N.ar    1  UNL1       -0.2417
     24 C         138.7850  139.8263  168.9462 C.ar    1  UNL1        0.0989
     25 C         139.6680  140.2311  167.8032 C.ar    1  UNL1        0.0198
     26 C         140.9705  140.9253  168.0711 C.ar    1  UNL1        0.0113
     27 C         145.2974  143.2970  170.2852 C.3     1  UNL1        0.0903
     28 C         143.9950  142.6029  170.0174 C.1     1  UNL1       -0.0853
     29 C         142.6924  141.9088  169.7496 C.1     1  UNL1       -0.0628
@<TRIPOS>BOND
     1    27    28    1
     2    28    29    3
     3    29    21    1
     4    21    22   ar
     5    22    23   ar
     6    23    24   ar
     7    24    25   ar
     8    25     1    1
     9     1     2   ar
    10     2     3   ar
    11     3     4   ar
    12     4     5   ar
    13     5     6   ar
    14     5     7    1
    15     7     8    1
    16     8     9    1
    17     9    10    1
    18    10    11    1
    19    10    12    2
    20     7    13    1
    21    13    14    1
    22    14    15    1
    23    15    16    1
    24    13    17    1
    25    17    18    1
    26    25    26   ar
    27    26    21   ar
    28     6     1   ar
    29    12     7    1
    30    16    13    1
    31    18     4    1
    32    11    19    1
    33    11    20    1
@<TRIPOS>MOLECULE
*****
 29 33 0 0 0
SMALL
GASTEIGER

@<TRIPOS>ATOM
      1 C         141.1320  139.7438  166.0394 C.ar    1  UNL1        0.0015
      2 C         140.4849  138.4807  165.5539 C.ar    1  UNL1        0.0031
      3 C         140.9560  137.8369  164.2836 C.ar    1  UNL1        0.0366
      4 C         142.0743  138.4563  163.4989 C.ar    1  UNL1        0.1363
      5 C         142.7214  139.7194  163.9843 C.ar    1  UNL1        0.0329
      6 C         142.2503  140.3632  165.2547 C.ar    1  UNL1        0.0006
      7 C         143.8397  140.3387  163.1996 C.3     1  UNL1        0.1260
      8 C         144.9625  141.0698  162.5251 C.3     1  UNL1        0.0918
      9 S         145.2944  142.2755  163.3535 S.3     1  UNL1       -0.0785
     10 C         144.3768  142.2896  164.5400 C.2     1  UNL1        0.1483
     11 N         144.3609  143.3198  165.6301 N.pl3   1  UNL1       -0.3380
     12 N         143.4777  141.0927  164.4449 N.2     1  UNL1       -0.2497
     13 C         144.3108  139.6950  161.9293 C.3     1  UNL1        0.1182
     14 C         143.9988  139.5222  162.1483 C.3     1  UNL1        0.1503
     15 O         144.3268  139.7038  161.9181 O.3     1  UNL1       -0.3532
     16 C         143.9988  139.5222  162.1483 C.3     1  UNL1        0.1503
     17 C         143.6637  138.4319  161.4439 C.3     1  UNL1        0.2122
     18 O         142.5454  137.8125  162.2286 O.3     1  UNL1       -0.4755
     19 H         144.9939  144.0734  165.6045 H       1  UNL1        0.1442
     20 H         143.7175  143.2423  166.3712 H       1  UNL1        0.1442
     21 C         139.0725  140.4111  169.3655 C.ar    1  UNL1        0.0608
     22 C         139.7185  141.6751  169.8502 C.ar    1  UNL1        0.1071
     23 N         140.8357  142.2953  169.0647 N.ar    1  UNL1       -0.2417
     24 C         141.3069  141.6516  167.7944 C.ar    1  UNL1        0.0989
     25 C         140.6609  140.3876  167.3097 C.ar    1  UNL1        0.0198
     26 C         139.5436  139.7673  168.0953 C.ar    1  UNL1        0.0113
     27 C         135.7209  138.5502  171.7222 C.3     1  UNL1        0.0903
     28 C         136.8380  139.1705  170.9367 C.1     1  UNL1       -0.0853
     29 C         137.9553  139.7908  170.1511 C.1     1  UNL1       -0.0628
@<TRIPOS>BOND
     1    27    28    1
     2    28    29    3
     3    29    21    1
     4    21    22   ar
     5    22    23   ar
     6    23    24   ar
     7    24    25   ar
     8    25     1    1
     9     1     2   ar
    10     2     3   ar
    11     3     4   ar
    12     4     5   ar
    13     5     6   ar
    14     5     7    1
    15     7     8    1
    16     8     9    1
    17     9    10    1
    18    10    11    1
    19    10    12    2
    20     7    13    1
    21    13    14    1
    22    14    15    1
    23    15    16    1
    24    13    17    1
    25    17    18    1
    26    25    26   ar
    27    26    21   ar
    28     6     1   ar
    29    12     7    1
    30    16    13    1
    31    18     4    1
    32    11    19    1
    33    11    20    1
@<TRIPOS>MOLECULE
*****
 29 33 0 0 0
SMALL
GASTEIGER

@<TRIPOS>ATOM
      1 C         142.1133  142.0191  166.5403 C.ar    1  UNL1        0.0015
      2 C         143.5153  142.5416  166.4327 C.ar    1  UNL1        0.0031
      3 C         143.9597  143.2455  165.1849 C.ar    1  UNL1        0.0366
      4 C         143.0021  143.4269  164.0447 C.ar    1  UNL1        0.1363
      5 C         141.6002  142.9045  164.1522 C.ar    1  UNL1        0.0329
      6 C         141.1558  142.2005  165.4001 C.ar    1  UNL1        0.0006
      7 C         140.6427  143.0860  163.0120 C.3     1  UNL1        0.1260
      8 C         139.5789  143.1924  161.9598 C.3     1  UNL1        0.0918
      9 S         138.3370  142.5376  162.4881 S.3     1  UNL1       -0.0785
     10 C         138.6333  142.0264  163.8669 C.2     1  UNL1        0.1483
     11 N         137.6733  141.3033  164.7642 N.pl3   1  UNL1       -0.3380
     12 N         140.0582  142.3653  164.1907 N.2     1  UNL1       -0.2497
     13 C         141.0870  143.7899  161.7642 C.3     1  UNL1        0.1182
     14 C         141.3542  143.7393  162.0824 C.3     1  UNL1        0.1503
     15 O         141.0734  143.7925  161.7480 O.3     1  UNL1       -0.3532
     16 C         141.3542  143.7393  162.0824 C.3     1  UNL1        0.1503
     17 C         142.4889  144.3123  161.6567 C.3     1  UNL1        0.2122
     18 O         143.4465  144.1309  162.7969 O.3     1  UNL1       -0.4755
     19 H         136.7536  141.1265  164.4607 H       1  UNL1        0.1442
     20 H         137.9629  141.0054  165.6568 H       1  UNL1        0.1442
     21 C         142.0314  139.4701  169.5811 C.ar    1  UNL1        0.0608
     22 C         140.7803  139.9072  170.2837 C.ar    1  UNL1        0.1071
     23 N         139.9735  141.0482  169.7386 N.ar    1  UNL1       -0.2417
     24 C         140.4179  141.7522  168.4907 C.ar    1  UNL1        0.0989
     25 C         141.6690  141.3151  167.7881 C.ar    1  UNL1        0.0198
     26 C         142.4757  140.1741  168.3333 C.ar    1  UNL1        0.0113
     27 C         144.4516  136.0470  171.2165 C.3     1  UNL1        0.0903
     28 C         143.6449  137.1880  170.6713 C.1     1  UNL1       -0.0853
     29 C         142.8381  138.3291  170.1262 C.1     1  UNL1       -0.0628
@<TRIPOS>BOND
     1    27    28    1
     2    28    29    3
     3    29    21    1
     4    21    22   ar
     5    22    23   ar
     6    23    24   ar
     7    24    25   ar
     8    25     1    1
     9     1     2   ar
    10     2     3   ar
    11     3     4   ar
    12     4     5   ar
    13     5     6   ar
    14     5     7    1
    15     7     8    1
    16     8     9    1
    17     9    10    1
    18    10    11    1
    19    10    12    2
    20     7    13    1
    21    13    14    1
    22    14    15    1
    23    15    16    1
    24    13    17    1
    25    17    18    1
    26    25    26   ar
    27    26    21   ar
    28     6     1   ar
    29    12     7    1
    30    16    13    1
    31    18     4    1
    32    11    19    1
    33    11    20    1
@<TRIPOS>MOLECULE
*****
 29 33 0 0 0
SMALL
GASTEIGER

@<TRIPOS>ATOM
      1 C         142.9567  141.8347  165.7807 C.ar    1  UNL1        0.0015
      2 C         143.5528  142.4877  166.9925 C.ar    1  UNL1        0.0031
      3 C         142.8928  142.3305  168.3302 C.ar    1  UNL1        0.0366
      4 C         141.6368  141.5202  168.4563 C.ar    1  UNL1        0.1363
      5 C         141.0407  140.8672  167.2446 C.ar    1  UNL1        0.0329
      6 C         141.7007  141.0245  165.9068 C.ar    1  UNL1        0.0006
      7 C         139.7847  140.0570  167.3707 C.3     1  UNL1        0.1260
      8 C         138.5394  139.2212  167.3422 C.3     1  UNL1        0.0918
      9 S         138.3143  138.7728  165.9286 S.3     1  UNL1       -0.0785
     10 C         139.4205  139.3313  165.0834 C.2     1  UNL1        0.1483
     11 N         139.5885  139.1314  163.6064 N.pl3   1  UNL1       -0.3380
     12 N         140.3293  140.1250  165.9746 N.2     1  UNL1       -0.2497
     13 C         139.1247  139.8998  168.7085 C.3     1  UNL1        0.1182
     14 C         139.4752  140.1258  168.6733 C.3     1  UNL1        0.1503
     15 O         139.1068  139.8882  168.7103 O.3     1  UNL1       -0.3532
     16 C         139.4752  140.1258  168.6733 C.3     1  UNL1        0.1503
     17 C         139.7208  140.5528  169.9202 C.3     1  UNL1        0.2122
     18 O         140.9768  141.3630  169.7941 O.3     1  UNL1       -0.4755
     19 H         138.9358  138.5907  163.1055 H       1  UNL1        0.1442
     20 H         140.3514  139.5408  163.1379 H       1  UNL1        0.1442
     21 C         143.5222  142.7655  161.9644 C.ar    1  UNL1        0.0608
     22 C         144.9366  142.3064  161.7673 C.ar    1  UNL1        0.1071
     23 N         145.6910  141.6901  162.9079 N.ar    1  UNL1       -0.2417
     24 C         145.0310  141.5329  164.2457 C.ar    1  UNL1        0.0989
     25 C         143.6167  141.9919  164.4429 C.ar    1  UNL1        0.0198
     26 C         142.8623  142.6083  163.3022 C.ar    1  UNL1        0.0113
     27 C         141.2591  144.6145  158.5426 C.3     1  UNL1        0.0903
     28 C         142.0135  143.9982  159.6832 C.1     1  UNL1       -0.0853
     29 C         142.7679  143.3818  160.8238 C.1     1  UNL1       -0.0628
@<TRIPOS>BOND
     1    27    28    1
     2    28    29    3
     3    29    21    1
     4    21    22   ar
     5    22    23   ar
     6    23    24   ar
     7    24    25   ar
     8    25     1    1
     9     1     2   ar
    10     2     3   ar
    11     3     4   ar
    12     4     5   ar
    13     5     6   ar
    14     5     7    1
    15     7     8    1
    16     8     9    1
    17     9    10    1
    18    10    11    1
    19    10    12    2
    20     7    13    1
    21    13    14    1
    22    14    15    1
    23    15    16    1
    24    13    17    1
    25    17    18    1
    26    25    26   ar
    27    26    21   ar
    28     6     1   ar
    29    12     7    1
    30    16    13    1
    31    18     4    1
    32    11    19    1
    33    11    20    1
@<TRIPOS>MOLECULE
*****
 29 33 0 0 0
SMALL
GASTEIGER

@<TRIPOS>ATOM
      1 C         139.6038  138.9469  165.2186 C.ar    1  UNL1        0.0015
      2 C         138.3645  138.1692  165.5496 C.ar    1  UNL1        0.0031
      3 C         137.7415  138.2935  166.9084 C.ar    1  UNL1        0.0366
      4 C         138.3578  139.1956  167.9363 C.ar    1  UNL1        0.1363
      5 C         139.5969  139.9733  167.6054 C.ar    1  UNL1        0.0329
      6 C         140.2200  139.8490  166.2465 C.ar    1  UNL1        0.0006
      7 C         140.2132  140.8753  168.6333 C.3     1  UNL1        0.1260
      8 C         140.9384  141.8119  169.5536 C.3     1  UNL1        0.0918
      9 S         142.1182  142.3684  168.8130 S.3     1  UNL1       -0.0785
     10 C         142.1222  141.7759  167.4351 C.2     1  UNL1        0.1483
     11 N         143.1269  142.0568  166.3574 N.pl3   1  UNL1       -0.3380
     12 N         140.9448  140.8531  167.3239 N.2     1  UNL1       -0.2497
     13 C         139.5902  140.9997  169.9921 C.3     1  UNL1        0.1182
     14 C         139.4183  140.7480  169.7053 C.3     1  UNL1        0.1503
     15 O         139.5990  141.0125  170.0068 O.3     1  UNL1       -0.3532
     16 C         139.4183  140.7480  169.7053 C.3     1  UNL1        0.1503
     17 C         138.3510  140.2219  170.3230 C.3     1  UNL1        0.2122
     18 O         137.7348  139.3199  169.2951 O.3     1  UNL1       -0.4755
     19 H         143.8689  142.6813  166.5269 H       1  UNL1        0.1442
     20 H         143.0445  141.6166  165.4807 H       1  UNL1        0.1442
     21 C         141.8643  139.7051  162.0461 C.ar    1  UNL1        0.0608
     22 C         141.4727  138.5740  161.1421 C.ar    1  UNL1        0.1071
     23 N         140.4582  137.5671  161.5970 N.ar    1  UNL1       -0.2417
     24 C         139.8351  137.6914  162.9558 C.ar    1  UNL1        0.0989
     25 C         140.2267  138.8226  163.8598 C.ar    1  UNL1        0.0198
     26 C         141.2413  139.8295  163.4049 C.ar    1  UNL1        0.0113
     27 C         144.9080  142.7257  160.6815 C.3     1  UNL1        0.0903
     28 C         143.8935  141.7188  161.1363 C.1     1  UNL1       -0.0853
     29 C         142.8788  140.7120  161.5912 C.1     1  UNL1       -0.0628
@<TRIPOS>BOND
     1    27    28    1
     2    28    29    3
     3    29    21    1
     4    21    22   ar
     5    22    23   ar
     6    23    24   ar
     7    24    25   ar
     8    25     1    1
     9     1     2   ar
    10     2     3   ar
    11     3     4   ar
    12     4     5   ar
    13     5     6   ar
    14     5     7    1
    15     7     8    1
    16     8     9    1
    17     9    10    1
    18    10    11    1
    19    10    12    2
    20     7    13    1
    21    13    14    1
    22    14    15    1
    23    15    16    1
    24    13    17    1
    25    17    18    1
    26    25    26   ar
    27    26    21   ar
    28     6     1   ar
    29    12     7    1
    30    16    13    1
    31    18     4    1
    32    11    19    1
    33    11    20    1
@<TRIPOS>MOLECULE
*****
 29 33 0 0 0
SMALL
GASTEIGER

@<TRIPOS>ATOM
      1 C         140.4047  141.8711  166.7030 C.ar    1  UNL1        0.0015
      2 C         140.0226  143.3186  166.6085 C.ar    1  UNL1        0.0031
      3 C         139.1729  143.7971  165.4688 C.ar    1  UNL1        0.0366
      4 C         138.7051  142.8281  164.4236 C.ar    1  UNL1        0.1363
      5 C         139.0872  141.3807  164.5181 C.ar    1  UNL1        0.0329
      6 C         139.9370  140.9022  165.6578 C.ar    1  UNL1        0.0006
      7 C         138.6195  140.4118  163.4729 C.3     1  UNL1        0.1260
      8 C         138.2287  139.3319  162.5079 C.3     1  UNL1        0.0918
      9 S         138.8272  138.0428  162.9876 S.3     1  UNL1       -0.0785
     10 C         139.5878  138.3259  164.2490 C.2     1  UNL1        0.1483
     11 N         140.3440  137.3214  165.0669 N.pl3   1  UNL1       -0.3380
     12 N         139.4595  139.7900  164.5490 N.2     1  UNL1       -0.2497
     13 C         137.7697  140.8903  162.3332 C.3     1  UNL1        0.1182
     14 C         137.9002  141.1606  162.6248 C.3     1  UNL1        0.1503
     15 O         137.7631  140.8765  162.3183 O.3     1  UNL1       -0.3532
     16 C         137.9002  141.1606  162.6248 C.3     1  UNL1        0.1503
     17 C         137.3877  142.3377  162.2388 C.3     1  UNL1        0.2122
     18 O         137.8554  143.3066  163.2839 O.3     1  UNL1       -0.4755
     19 H         140.3700  136.3779  164.7868 H       1  UNL1        0.1442
     20 H         140.8143  137.6055  165.8838 H       1  UNL1        0.1442
     21 C         143.2351  141.7632  169.4828 C.ar    1  UNL1        0.0608
     22 C         142.9541  140.4357  170.1221 C.ar    1  UNL1        0.1071
     23 N         141.8233  139.5866  169.6217 N.ar    1  UNL1       -0.2417
     24 C         140.9735  140.0651  168.4820 C.ar    1  UNL1        0.0989
     25 C         141.2545  141.3926  167.8427 C.ar    1  UNL1        0.0198
     26 C         142.3854  142.2417  168.3431 C.ar    1  UNL1        0.0113
     27 C         146.6276  144.3103  170.9839 C.3     1  UNL1        0.0903
     28 C         145.4968  143.4613  170.4835 C.1     1  UNL1       -0.0853
     29 C         144.3659  142.6122  169.9831 C.1     1  UNL1       -0.0628
@<TRIPOS>BOND
     1    27    28    1
     2    28    29    3
     3    29    21    1
     4    21    22   ar
     5    22    23   ar
     6    23    24   ar
     7    24    25   ar
     8    25     1    1
     9     1     2   ar
    10     2     3   ar
    11     3     4   ar
    12     4     5   ar
    13     5     6   ar
    14     5     7    1
    15     7     8    1
    16     8     9    1
    17     9    10    1
    18    10    11    1
    19    10    12    2
    20     7    13    1
    21    13    14    1
    22    14    15    1
    23    15    16    1
    24    13    17    1
    25    17    18    1
    26    25    26   ar
    27    26    21   ar
    28     6     1   ar
    29    12     7    1
    30    16    13    1
    31    18     4    1
    32    11    19    1
    33    11    20    1
@<TRIPOS>MOLECULE
*****
 29 33 0 0 0
SMALL
GASTEIGER

@<TRIPOS>ATOM
      1 C         142.7654  141.8923  165.5589 C.ar    1  UNL1        0.0015
      2 C         143.4834  142.5080  166.7232 C.ar    1  UNL1        0.0031
      3 C         142.9536  142.3225  168.1142 C.ar    1  UNL1        0.0366
      4 C         141.7059  141.5214  168.3409 C.ar    1  UNL1        0.1363
      5 C         140.9879  140.9058  167.1767 C.ar    1  UNL1        0.0329
      6 C         141.5177  141.0913  165.7856 C.ar    1  UNL1        0.0006
      7 C         139.7402  140.1048  167.4034 C.3     1  UNL1        0.1260
      8 C         138.4879  139.2821  167.4747 C.3     1  UNL1        0.0918
      9 S         138.1222  138.8726  166.0787 S.3     1  UNL1       -0.0785
     10 C         139.1484  139.4421  165.1447 C.2     1  UNL1        0.1483
     11 N         139.1708  139.2789  163.6539 N.pl3   1  UNL1       -0.3380
     12 N         140.1484  140.2037  165.9634 N.2     1  UNL1       -0.2497
     13 C         139.2104  139.9193  168.7944 C.3     1  UNL1        0.1182
     14 C         139.5585  140.1428  168.7311 C.3     1  UNL1        0.1503
     15 O         139.1926  139.9079  168.7976 O.3     1  UNL1       -0.3532
     16 C         139.5585  140.1428  168.7311 C.3     1  UNL1        0.1503
     17 C         139.9283  140.5349  169.9586 C.3     1  UNL1        0.2122
     18 O         141.1761  141.3360  169.7319 O.3     1  UNL1       -0.4755
     19 H         138.4663  138.7577  163.2051 H       1  UNL1        0.1442
     20 H         139.8899  139.6929  163.1241 H       1  UNL1        0.1442
     21 C         143.5544  141.2268  161.7268 C.ar    1  UNL1        0.0608
     22 C         144.3548  142.4487  161.3858 C.ar    1  UNL1        0.1071
     23 N         144.6255  143.4851  162.4358 N.ar    1  UNL1       -0.2417
     24 C         144.0957  143.2997  163.8269 C.ar    1  UNL1        0.0989
     25 C         143.2952  142.0778  164.1679 C.ar    1  UNL1        0.0198
     26 C         143.0246  141.0413  163.1178 C.ar    1  UNL1        0.0113
     27 C         142.7423  138.1175  158.5768 C.3     1  UNL1        0.0903
     28 C         143.0130  139.1539  159.6268 C.1     1  UNL1       -0.0853
     29 C         143.2837  140.1904  160.6768 C.1     1  UNL1       -0.0628
@<TRIPOS>BOND
     1    27    28    1
     2    28    29    3
     3    29    21    1
     4    21    22   ar
     5    22    23   ar
     6    23    24   ar
     7    24    25   ar
     8    25     1    1
     9     1     2   ar
    10     2     3   ar
    11     3     4   ar
    12     4     5   ar
    13     5     6   ar
    14     5     7    1
    15     7     8    1
    16     8     9    1
    17     9    10    1
    18    10    11    1
    19    10    12    2
    20     7    13    1
    21    13    14    1
    22    14    15    1
    23    15    16    1
    24    13    17    1
    25    17    18    1
    26    25    26   ar
    27    26    21   ar
    28     6     1   ar
    29    12     7    1
    30    16    13    1
    31    18     4    1
    32    11    19    1
    33    11    20    1
@<TRIPOS>MOLECULE
*****
 29 33 0 0 0
SMALL
GASTEIGER

@<TRIPOS>ATOM
      1 C         142.8944  141.5003  166.0308 C.ar    1  UNL1        0.0015
      2 C         143.5327  142.8578  166.0289 C.ar    1  UNL1        0.0031
      3 C         144.1495  143.3948  164.7714 C.ar    1  UNL1        0.0366
      4 C         144.1280  142.5743  163.5159 C.ar    1  UNL1        0.1363
      5 C         143.4897  141.2169  163.5178 C.ar    1  UNL1        0.0329
      6 C         142.8729  140.6799  164.7753 C.ar    1  UNL1        0.0006
      7 C         143.4682  140.3965  162.2622 C.3     1  UNL1        0.1260
      8 C         143.3711  139.4662  161.0895 C.3     1  UNL1        0.0918
      9 S         142.6579  138.2257  161.5397 S.3     1  UNL1       -0.0785
     10 C         142.3142  138.3893  162.9905 C.2     1  UNL1        0.1483
     11 N         141.5959  137.3874  163.8449 N.pl3   1  UNL1       -0.3380
     12 N         142.8150  139.7309  163.4371 N.2     1  UNL1       -0.2497
     13 C         144.0850  140.9335  161.0047 C.3     1  UNL1        0.1182
     14 C         144.0910  141.1624  161.3550 C.3     1  UNL1        0.1503
     15 O         144.0847  140.9218  160.9868 O.3     1  UNL1       -0.3532
     16 C         144.0910  141.1624  161.3550 C.3     1  UNL1        0.1503
     17 C         144.7232  142.2909  161.0029 C.3     1  UNL1        0.2122
     18 O         144.7447  143.1113  162.2584 O.3     1  UNL1       -0.4755
     19 H         141.3049  136.5298  163.4587 H       1  UNL1        0.1442
     20 H         141.4153  137.5873  164.7918 H       1  UNL1        0.1442
     21 C         142.3227  139.3009  169.2844 C.ar    1  UNL1        0.0608
     22 C         141.0442  139.8893  169.8032 C.ar    1  UNL1        0.1071
     23 N         140.3824  141.0147  169.0647 N.ar    1  UNL1       -0.2417
     24 C         140.9992  141.5517  167.8071 C.ar    1  UNL1        0.0989
     25 C         142.2777  140.9633  167.2883 C.ar    1  UNL1        0.0198
     26 C         142.9394  139.8379  168.0269 C.ar    1  UNL1        0.0113
     27 C         144.3080  135.9247  171.5002 C.3     1  UNL1        0.0903
     28 C         143.6462  137.0501  170.7616 C.1     1  UNL1       -0.0853
     29 C         142.9845  138.1755  170.0230 C.1     1  UNL1       -0.0628
@<TRIPOS>BOND
     1    27    28    1
     2    28    29    3
     3    29    21    1
     4    21    22   ar
     5    22    23   ar
     6    23    24   ar
     7    24    25   ar
     8    25     1    1
     9     1     2   ar
    10     2     3   ar
    11     3     4   ar
    12     4     5   ar
    13     5     6   ar
    14     5     7    1
    15     7     8    1
    16     8     9    1
    17     9    10    1
    18    10    11    1
    19    10    12    2
    20     7    13    1
    21    13    14    1
    22    14    15    1
    23    15    16    1
    24    13    17    1
    25    17    18    1
    26    25    26   ar
    27    26    21   ar
    28     6     1   ar
    29    12     7    1
    30    16    13    1
    31    18     4    1
    32    11    19    1
    33    11    20    1
@<TRIPOS>MOLECULE
*****
 29 33 0 0 0
SMALL
GASTEIGER

@<TRIPOS>ATOM
      1 C         140.8356  141.5092  166.6036 C.ar    1  UNL1        0.0015
      2 C         139.4685  140.9466  166.3490 C.ar    1  UNL1        0.0031
      3 C         138.7656  141.2396  165.0568 C.ar    1  UNL1        0.0366
      4 C         139.4297  142.0953  164.0190 C.ar    1  UNL1        0.1363
      5 C         140.7966  142.6579  164.2736 C.ar    1  UNL1        0.0329
      6 C         141.4996  142.3648  165.5659 C.ar    1  UNL1        0.0006
      7 C         141.4607  143.5135  163.2358 C.3     1  UNL1        0.1260
      8 C         142.2460  144.3808  162.2971 C.3     1  UNL1        0.0918
      9 S         143.5531  144.7109  162.9549 S.3     1  UNL1       -0.0785
     10 C         143.5756  144.0478  164.3001 C.2     1  UNL1        0.1483
     11 N         144.6946  144.1131  165.2967 N.pl3   1  UNL1       -0.3380
     12 N         142.2824  143.3077  164.4738 N.2     1  UNL1       -0.2497
     13 C         140.7578  143.8065  161.9436 C.3     1  UNL1        0.1182
     14 C         140.5725  143.5678  162.2331 C.3     1  UNL1        0.1503
     15 O         140.7672  143.8188  161.9288 O.3     1  UNL1       -0.3532
     16 C         140.5725  143.5678  162.2331 C.3     1  UNL1        0.1503
     17 C         139.3908  143.2439  161.6890 C.3     1  UNL1        0.2122
     18 O         138.7267  142.3883  162.7268 O.3     1  UNL1       -0.4755
     19 H         145.5083  144.6275  165.0902 H       1  UNL1        0.1442
     20 H         144.6155  143.6416  166.1574 H       1  UNL1        0.1442
     21 C         143.3705  141.7996  169.6433 C.ar    1  UNL1        0.0608
     22 C         142.9444  140.6301  170.4805 C.ar    1  UNL1        0.1071
     23 N         141.8154  139.7537  170.0254 N.ar    1  UNL1       -0.2417
     24 C         141.1124  140.0467  168.7330 C.ar    1  UNL1        0.0989
     25 C         141.5385  141.2162  167.8959 C.ar    1  UNL1        0.0198
     26 C         142.6676  142.0926  168.3511 C.ar    1  UNL1        0.0113
     27 C         146.7576  144.4289  171.0087 C.3     1  UNL1        0.0903
     28 C         145.6286  143.5524  170.5536 C.1     1  UNL1       -0.0853
     29 C         144.4995  142.6760  170.0984 C.1     1  UNL1       -0.0628
@<TRIPOS>BOND
     1    27    28    1
     2    28    29    3
     3    29    21    1
     4    21    22   ar
     5    22    23   ar
     6    23    24   ar
     7    24    25   ar
     8    25     1    1
     9     1     2   ar
    10     2     3   ar
    11     3     4   ar
    12     4     5   ar
    13     5     6   ar
    14     5     7    1
    15     7     8    1
    16     8     9    1
    17     9    10    1
    18    10    11    1
    19    10    12    2
    20     7    13    1
    21    13    14    1
    22    14    15    1
    23    15    16    1
    24    13    17    1
    25    17    18    1
    26    25    26   ar
    27    26    21   ar
    28     6     1   ar
    29    12     7    1
    30    16    13    1
    31    18     4    1
    32    11    19    1
    33    11    20    1
