@<TRIPOS>MOLECULE
*****
 47 49 0 0 0
SMALL
GASTEIGER

@<TRIPOS>ATOM
      1 C         141.2020  141.1760  165.9250 C.3     1  UNL1        0.0988
      2 C         142.5613  141.3341  165.3106 C.ar    1  UNL1       -0.0020
      3 C         143.2800  142.6472  165.4075 C.ar    1  UNL1       -0.0001
      4 C         144.6392  142.8053  164.7932 C.ar    1  UNL1        0.0294
      5 C         145.2798  141.6504  164.0820 C.ar    1  UNL1        0.1401
      6 F         146.6391  141.8086  163.4677 F       1  UNL1       -0.2042
      7 C         144.5611  140.3374  163.9851 C.ar    1  UNL1        0.0294
      8 C         143.2019  140.1792  164.5994 C.ar    1  UNL1       -0.0001
      9 C         141.8344  140.9516  167.2664 C.ar    1  UNL1        0.0000
     10 C         142.0795  139.5550  167.7559 C.ar    1  UNL1        0.0272
     11 C         142.7120  139.3306  169.0975 C.ar    1  UNL1        0.1398
     12 F         142.9571  137.9341  169.5869 F       1  UNL1       -0.2042
     13 C         143.0993  140.5028  169.9495 C.ar    1  UNL1        0.0335
     14 C         142.8542  141.8993  169.4600 C.ar    1  UNL1        0.0734
     15 C         142.2218  142.1237  168.1185 C.ar    1  UNL1        0.0016
     16 C         143.2416  143.0715  170.3121 C.3     1  UNL1        0.4186
     17 F         143.6289  144.2437  171.1642 F       1  UNL1       -0.1659
     18 F         144.6788  142.6478  170.2417 F       1  UNL1       -0.1659
     19 F         141.8044  143.4952  170.3825 F       1  UNL1       -0.1659
     20 C         140.0136  142.7487  164.2324 C.2     1  UNL1        0.2401
     21 O         139.9649  143.4449  164.6176 O.2     1  UNL1       -0.2736
     22 N         140.5696  141.4004  164.5835 N.am    1  UNL1       -0.2991
     23 H         140.5193  140.6627  163.9334 H       1  UNL1        0.1500
     24 C         139.3812  142.9731  162.8910 C.3     1  UNL1        0.1730
     25 C         140.0459  143.8699  161.8890 C.3     1  UNL1        0.2851
     26 O         138.7992  144.6999  161.8048 O.3     1  UNL1       -0.3715
     27 H         138.1252  144.3320  162.3976 H       1  UNL1        0.2109
     28 C         140.7105  144.7668  160.8870 C.3     1  UNL1        0.4292
     29 F         141.3751  145.6636  159.8851 F       1  UNL1       -0.1672
     30 F         140.4431  145.9503  161.7690 F       1  UNL1       -0.1672
     31 F         141.0569  143.7014  159.8896 F       1  UNL1       -0.1672
     32 C         141.2925  143.0400  161.9731 C.3     1  UNL1        0.4292
     33 F         142.6200  142.3588  162.1273 F       1  UNL1       -0.1672
     34 F         142.1781  144.0992  162.5594 F       1  UNL1       -0.1672
     35 F         140.8770  141.7048  161.4303 F       1  UNL1       -0.1672
     36 N         138.0841  142.3006  162.5514 N.3     1  UNL1       -0.2900
     37 H         137.6499  142.0349  163.4353 H       1  UNL1        0.1237
     38 C         137.9991  139.7158  162.3029 C.3     1  UNL1        0.0171
     39 C         138.0780  141.0787  161.6813 C.3     1  UNL1        0.0545
     40 C         138.1443  141.0367  160.1834 C.3     1  UNL1        0.0171
     41 C         139.8428  141.0178  166.5393 C.3     1  UNL1        0.0528
     42 C         139.1359  139.6968  166.4665 C.ar    1  UNL1       -0.0199
     43 C         139.5190  138.6981  165.4150 C.ar    1  UNL1       -0.0042
     44 C         138.8121  137.3771  165.3422 C.ar    1  UNL1       -0.0003
     45 C         137.7221  137.0549  166.3210 C.ar    1  UNL1       -0.0000
     46 C         137.3390  138.0536  167.3726 C.ar    1  UNL1       -0.0003
     47 C         138.0459  139.3745  167.4453 C.ar    1  UNL1       -0.0042
@<TRIPOS>BOND
     1    38    39    1
     2    39    40    1
     3    39    36    1
     4    36    24    1
     5    24    20    1
     6    20    21    2
     7    20    22   am
     8    22     1    1
     9     1    41    1
    10    41    42    1
    11    42    43   ar
    12    43    44   ar
    13    44    45   ar
    14    45    46   ar
    15    46    47   ar
    16     1     2    1
    17     2     3   ar
    18     3     4   ar
    19     4     5   ar
    20     5     6    1
    21     5     7   ar
    22     7     8   ar
    23     1     9    1
    24     9    10   ar
    25    10    11   ar
    26    11    12    1
    27    11    13   ar
    28    13    14   ar
    29    14    16    1
    30    16    17    1
    31    16    18    1
    32    16    19    1
    33    14    15   ar
    34    24    25    1
    35    25    26    1
    36    25    28    1
    37    28    29    1
    38    28    30    1
    39    28    31    1
    40    25    32    1
    41    32    33    1
    42    32    34    1
    43    32    35    1
    44    47    42   ar
    45     8     2   ar
    46    15     9   ar
    47    36    37    1
    48    22    23    1
    49    26    27    1
@<TRIPOS>MOLECULE
*****
 47 49 0 0 0
SMALL
GASTEIGER

@<TRIPOS>ATOM
      1 C         141.3096  141.3269  165.9002 C.3     1  UNL1        0.0988
      2 C         140.2850  140.2559  166.1308 C.ar    1  UNL1       -0.0020
      3 C         140.1859  139.0964  165.1843 C.ar    1  UNL1       -0.0001
      4 C         139.1613  138.0255  165.4149 C.ar    1  UNL1        0.0294
      5 C         138.2357  138.1140  166.5919 C.ar    1  UNL1        0.1401
      6 F         137.2110  137.0431  166.8225 F       1  UNL1       -0.2042
      7 C         138.3348  139.2735  167.5384 C.ar    1  UNL1        0.0294
      8 C         139.3594  140.3444  167.3078 C.ar    1  UNL1       -0.0001
      9 C         141.8936  141.0600  167.2558 C.ar    1  UNL1        0.0000
     10 C         142.0749  139.6484  167.7297 C.ar    1  UNL1        0.0272
     11 C         142.6589  139.3815  169.0854 C.ar    1  UNL1        0.1398
     12 F         142.8402  137.9700  169.5592 F       1  UNL1       -0.2042
     13 C         143.0616  140.5262  169.9671 C.ar    1  UNL1        0.0335
     14 C         142.8803  141.9378  169.4932 C.ar    1  UNL1        0.0734
     15 C         142.2963  142.2047  168.1376 C.ar    1  UNL1        0.0016
     16 C         143.2830  143.0825  170.3750 C.3     1  UNL1        0.4186
     17 F         143.6856  144.2272  171.2568 F       1  UNL1       -0.1659
     18 F         144.7162  142.6497  170.2824 F       1  UNL1       -0.1659
     19 F         141.8498  143.5153  170.4676 F       1  UNL1       -0.1659
     20 C         139.6186  142.5938  164.3885 C.2     1  UNL1        0.2401
     21 O         139.2233  143.0659  164.8948 O.2     1  UNL1       -0.2736
     22 N         140.7257  141.5938  164.5446 N.am    1  UNL1       -0.2991
     23 H         141.0690  141.1126  163.7573 H       1  UNL1        0.1500
     24 C         139.0346  142.8607  163.0329 C.3     1  UNL1        0.1730
     25 C         138.8430  141.7322  162.0633 C.3     1  UNL1        0.2851
     26 O         138.0580  140.9785  163.0958 O.3     1  UNL1       -0.3715
     27 H         138.0057  141.5040  163.9094 H       1  UNL1        0.2109
     28 C         138.6513  140.6038  161.0939 C.3     1  UNL1        0.4292
     29 F         138.4597  139.4754  160.1244 F       1  UNL1       -0.1672
     30 F         137.1725  140.6412  161.3426 F       1  UNL1       -0.1672
     31 F         140.0957  140.4291  160.7289 F       1  UNL1       -0.1672
     32 C         139.6279  142.4859  161.0309 C.3     1  UNL1        0.4292
     33 F         140.2554  143.2553  159.9065 F       1  UNL1       -0.1672
     34 F         138.4882  142.7517  160.0928 F       1  UNL1       -0.1672
     35 F         141.0257  142.4982  161.5753 F       1  UNL1       -0.1672
     36 N         138.6423  144.2560  162.6467 N.3     1  UNL1       -0.2900
     37 H         138.1408  144.1865  161.7612 H       1  UNL1        0.1237
     38 C         139.5038  146.3953  161.4504 C.3     1  UNL1        0.0171
     39 C         139.6957  145.3086  162.4663 C.3     1  UNL1        0.0545
     40 C         140.9922  145.4251  163.2115 C.3     1  UNL1        0.0171
     41 C         142.3343  142.3978  165.6696 C.3     1  UNL1        0.0528
     42 C         143.4093  142.1986  164.6426 C.ar    1  UNL1       -0.0199
     43 C         144.2319  140.9443  164.6514 C.ar    1  UNL1       -0.0042
     44 C         145.3068  140.7452  163.6244 C.ar    1  UNL1       -0.0003
     45 C         145.5592  141.8004  162.5886 C.ar    1  UNL1       -0.0000
     46 C         144.7367  143.0547  162.5798 C.ar    1  UNL1       -0.0003
     47 C         143.6617  143.2538  163.6068 C.ar    1  UNL1       -0.0042
@<TRIPOS>BOND
     1    38    39    1
     2    39    40    1
     3    39    36    1
     4    36    24    1
     5    24    20    1
     6    20    21    2
     7    20    22   am
     8    22     1    1
     9     1    41    1
    10    41    42    1
    11    42    43   ar
    12    43    44   ar
    13    44    45   ar
    14    45    46   ar
    15    46    47   ar
    16     1     2    1
    17     2     3   ar
    18     3     4   ar
    19     4     5   ar
    20     5     6    1
    21     5     7   ar
    22     7     8   ar
    23     1     9    1
    24     9    10   ar
    25    10    11   ar
    26    11    12    1
    27    11    13   ar
    28    13    14   ar
    29    14    16    1
    30    16    17    1
    31    16    18    1
    32    16    19    1
    33    14    15   ar
    34    24    25    1
    35    25    26    1
    36    25    28    1
    37    28    29    1
    38    28    30    1
    39    28    31    1
    40    25    32    1
    41    32    33    1
    42    32    34    1
    43    32    35    1
    44    47    42   ar
    45     8     2   ar
    46    15     9   ar
    47    36    37    1
    48    22    23    1
    49    26    27    1
@<TRIPOS>MOLECULE
*****
 47 49 0 0 0
SMALL
GASTEIGER

@<TRIPOS>ATOM
      1 C         140.8675  141.3375  165.3488 C.3     1  UNL1        0.0988
      2 C         140.0116  140.1258  165.5711 C.ar    1  UNL1       -0.0020
      3 C         140.3045  138.8546  164.8307 C.ar    1  UNL1       -0.0001
      4 C         139.4487  137.6429  165.0530 C.ar    1  UNL1        0.0294
      5 C         138.3000  137.7025  166.0157 C.ar    1  UNL1        0.1401
      6 F         137.4441  136.4908  166.2380 F       1  UNL1       -0.2042
      7 C         138.0071  138.9737  166.7561 C.ar    1  UNL1        0.0294
      8 C         138.8629  140.1853  166.5339 C.ar    1  UNL1       -0.0001
      9 C         141.1386  141.4162  166.8220 C.ar    1  UNL1        0.0000
     10 C         140.8254  142.6745  167.5761 C.ar    1  UNL1        0.0272
     11 C         141.0965  142.7531  169.0493 C.ar    1  UNL1        0.1398
     12 F         140.7833  144.0114  169.8034 F       1  UNL1       -0.2042
     13 C         141.6809  141.5736  169.7684 C.ar    1  UNL1        0.0335
     14 C         141.9941  140.3153  169.0143 C.ar    1  UNL1        0.0734
     15 C         141.7230  140.2366  167.5412 C.ar    1  UNL1        0.0016
     16 C         142.5785  139.1357  169.7335 C.3     1  UNL1        0.4186
     17 F         143.1628  137.9561  170.4526 F       1  UNL1       -0.1659
     18 F         142.2434  139.7722  171.0498 F       1  UNL1       -0.1659
     19 F         142.9135  138.4992  168.4172 F       1  UNL1       -0.1659
     20 C         139.5147  142.1004  163.2661 C.2     1  UNL1        0.2401
     21 O         138.9962  142.6316  163.5568 O.2     1  UNL1       -0.2736
     22 N         140.5964  141.2587  163.8757 N.am    1  UNL1       -0.2991
     23 H         141.1284  140.6547  163.3088 H       1  UNL1        0.1500
     24 C         139.2436  142.0217  161.7929 C.3     1  UNL1        0.1730
     25 C         139.2288  140.6897  161.1031 C.3     1  UNL1        0.2851
     26 O         138.2184  140.1887  162.0922 O.3     1  UNL1       -0.3715
     27 H         138.0096  140.8928  162.7259 H       1  UNL1        0.2109
     28 C         139.2140  139.3578  160.4134 C.3     1  UNL1        0.4292
     29 F         139.1991  138.0259  159.7237 F       1  UNL1       -0.1672
     30 F         137.7363  139.4892  160.1913 F       1  UNL1       -0.1672
     31 F         140.6787  139.0650  160.5498 F       1  UNL1       -0.1672
     32 C         140.2391  141.1906  160.1141 C.3     1  UNL1        0.4292
     33 F         141.1187  141.6722  158.9985 F       1  UNL1       -0.1672
     34 F         139.3575  141.1241  158.9025 F       1  UNL1       -0.1672
     35 F         141.4660  141.4366  160.9415 F       1  UNL1       -0.1672
     36 N         138.9872  143.2749  161.0095 N.3     1  UNL1       -0.2900
     37 H         139.0126  143.0159  160.0232 H       1  UNL1        0.1237
     38 C         139.5035  145.5857  162.0790 C.3     1  UNL1        0.0171
     39 C         139.8947  144.4585  161.1699 C.3     1  UNL1        0.0545
     40 C         141.2199  144.6770  160.5021 C.3     1  UNL1        0.0171
     41 C         141.7234  142.5491  165.1266 C.3     1  UNL1        0.0528
     42 C         143.0171  142.4263  164.3774 C.ar    1  UNL1       -0.0199
     43 C         143.3123  143.3512  163.2340 C.ar    1  UNL1       -0.0042
     44 C         144.6060  143.2285  162.4849 C.ar    1  UNL1       -0.0003
     45 C         145.6045  142.1808  162.8791 C.ar    1  UNL1       -0.0000
     46 C         145.3092  141.2558  164.0224 C.ar    1  UNL1       -0.0003
     47 C         144.0156  141.3786  164.7716 C.ar    1  UNL1       -0.0042
@<TRIPOS>BOND
     1    38    39    1
     2    39    40    1
     3    39    36    1
     4    36    24    1
     5    24    20    1
     6    20    21    2
     7    20    22   am
     8    22     1    1
     9     1    41    1
    10    41    42    1
    11    42    43   ar
    12    43    44   ar
    13    44    45   ar
    14    45    46   ar
    15    46    47   ar
    16     1     2    1
    17     2     3   ar
    18     3     4   ar
    19     4     5   ar
    20     5     6    1
    21     5     7   ar
    22     7     8   ar
    23     1     9    1
    24     9    10   ar
    25    10    11   ar
    26    11    12    1
    27    11    13   ar
    28    13    14   ar
    29    14    16    1
    30    16    17    1
    31    16    18    1
    32    16    19    1
    33    14    15   ar
    34    24    25    1
    35    25    26    1
    36    25    28    1
    37    28    29    1
    38    28    30    1
    39    28    31    1
    40    25    32    1
    41    32    33    1
    42    32    34    1
    43    32    35    1
    44    47    42   ar
    45     8     2   ar
    46    15     9   ar
    47    36    37    1
    48    22    23    1
    49    26    27    1
@<TRIPOS>MOLECULE
*****
 47 49 0 0 0
SMALL
GASTEIGER

@<TRIPOS>ATOM
      1 C         140.7487  140.6468  165.4445 C.3     1  UNL1        0.0988
      2 C         142.1088  140.0179  165.5126 C.ar    1  UNL1       -0.0020
      3 C         142.3262  138.7895  166.3456 C.ar    1  UNL1       -0.0001
      4 C         143.6862  138.1606  166.4138 C.ar    1  UNL1        0.0294
      5 C         144.8289  138.7599  165.6489 C.ar    1  UNL1        0.1401
      6 F         146.1890  138.1310  165.7171 F       1  UNL1       -0.2042
      7 C         144.6115  139.9883  164.8159 C.ar    1  UNL1        0.0294
      8 C         143.2515  140.6173  164.7477 C.ar    1  UNL1       -0.0001
      9 C         140.7715  140.8569  166.9295 C.ar    1  UNL1        0.0000
     10 C         139.6209  140.3898  167.7708 C.ar    1  UNL1        0.0272
     11 C         139.6438  140.5999  169.2559 C.ar    1  UNL1        0.1398
     12 F         138.4932  140.1327  170.0972 F       1  UNL1       -0.2042
     13 C         140.8172  141.2771  169.8996 C.ar    1  UNL1        0.0335
     14 C         141.9678  141.7443  169.0582 C.ar    1  UNL1        0.0734
     15 C         141.9450  141.5342  167.5732 C.ar    1  UNL1        0.0016
     16 C         143.1413  142.4216  169.7020 C.3     1  UNL1        0.4186
     17 F         144.3147  143.0988  170.3457 F       1  UNL1       -0.1659
     18 F         143.7984  142.5582  168.3604 F       1  UNL1       -0.1659
     19 F         142.4842  142.2849  171.0434 F       1  UNL1       -0.1659
     20 C         140.2897  139.1171  163.3953 C.2     1  UNL1        0.2401
     21 O         140.0424  138.4313  163.7180 O.2     1  UNL1       -0.2736
     22 N         140.7259  140.4367  163.9595 N.am    1  UNL1       -0.2991
     23 H         140.9972  141.1650  163.3551 H       1  UNL1        0.1500
     24 C         140.2669  138.9070  161.9103 C.3     1  UNL1        0.1730
     25 C         139.5184  139.8627  161.0290 C.3     1  UNL1        0.2851
     26 O         140.7704  140.6663  160.8372 O.3     1  UNL1       -0.3715
     27 H         141.4966  140.2569  161.3331 H       1  UNL1        0.2109
     28 C         138.7701  140.8183  160.1477 C.3     1  UNL1        0.4292
     29 F         138.0217  141.7740  159.2665 F       1  UNL1       -0.1672
     30 F         139.2401  141.9654  160.9924 F       1  UNL1       -0.1672
     31 F         138.2124  139.7964  159.2020 F       1  UNL1       -0.1672
     32 C         138.2665  139.0591  161.2207 C.3     1  UNL1        0.4292
     33 F         136.9447  138.4043  161.4931 F       1  UNL1       -0.1672
     34 F         137.4693  140.1248  161.9125 F       1  UNL1       -0.1672
     35 F         138.5937  137.7269  160.6136 F       1  UNL1       -0.1672
     36 N         140.9925  137.7412  161.3065 N.3     1  UNL1       -0.2900
     37 H         140.9141  136.9701  161.9695 H       1  UNL1        0.1237
     38 C         142.8779  137.7879  159.5195 C.3     1  UNL1        0.0171
     39 C         142.4454  137.8632  160.9538 C.3     1  UNL1        0.0545
     40 C         143.5907  138.0622  161.9017 C.3     1  UNL1        0.0171
     41 C         139.3887  141.2758  165.3764 C.3     1  UNL1        0.0528
     42 C         139.1869  142.5444  164.6017 C.ar    1  UNL1       -0.0199
     43 C         140.2706  143.5808  164.5644 C.ar    1  UNL1       -0.0042
     44 C         140.0687  144.8493  163.7898 C.ar    1  UNL1       -0.0003
     45 C         138.7833  145.0814  163.0524 C.ar    1  UNL1       -0.0000
     46 C         137.6996  144.0449  163.0897 C.ar    1  UNL1       -0.0003
     47 C         137.9014  142.7764  163.8643 C.ar    1  UNL1       -0.0042
@<TRIPOS>BOND
     1    38    39    1
     2    39    40    1
     3    39    36    1
     4    36    24    1
     5    24    20    1
     6    20    21    2
     7    20    22   am
     8    22     1    1
     9     1    41    1
    10    41    42    1
    11    42    43   ar
    12    43    44   ar
    13    44    45   ar
    14    45    46   ar
    15    46    47   ar
    16     1     2    1
    17     2     3   ar
    18     3     4   ar
    19     4     5   ar
    20     5     6    1
    21     5     7   ar
    22     7     8   ar
    23     1     9    1
    24     9    10   ar
    25    10    11   ar
    26    11    12    1
    27    11    13   ar
    28    13    14   ar
    29    14    16    1
    30    16    17    1
    31    16    18    1
    32    16    19    1
    33    14    15   ar
    34    24    25    1
    35    25    26    1
    36    25    28    1
    37    28    29    1
    38    28    30    1
    39    28    31    1
    40    25    32    1
    41    32    33    1
    42    32    34    1
    43    32    35    1
    44    47    42   ar
    45     8     2   ar
    46    15     9   ar
    47    36    37    1
    48    22    23    1
    49    26    27    1
@<TRIPOS>MOLECULE
*****
 47 49 0 0 0
SMALL
GASTEIGER

@<TRIPOS>ATOM
      1 C         141.2502  141.1173  166.0308 C.3     1  UNL1        0.0988
      2 C         142.6092  141.2825  165.4176 C.ar    1  UNL1       -0.0020
      3 C         143.3496  140.0846  164.9011 C.ar    1  UNL1       -0.0001
      4 C         144.7085  140.2499  164.2878 C.ar    1  UNL1        0.0294
      5 C         145.3269  141.6130  164.1910 C.ar    1  UNL1        0.1401
      6 F         146.6858  141.7783  163.5778 F       1  UNL1       -0.2042
      7 C         144.5864  142.8109  164.7075 C.ar    1  UNL1        0.0294
      8 C         143.2276  142.6457  165.3208 C.ar    1  UNL1       -0.0001
      9 C         141.8824  140.9067  167.3747 C.ar    1  UNL1        0.0000
     10 C         142.0901  139.5158  167.8962 C.ar    1  UNL1        0.0272
     11 C         142.7223  139.3053  169.2402 C.ar    1  UNL1        0.1398
     12 F         142.9300  137.9143  169.7617 F       1  UNL1       -0.2042
     13 C         143.1467  140.4858  170.0625 C.ar    1  UNL1        0.0335
     14 C         142.9390  141.8767  169.5410 C.ar    1  UNL1        0.0734
     15 C         142.3068  142.0873  168.1971 C.ar    1  UNL1        0.0016
     16 C         143.3634  143.0573  170.3634 C.3     1  UNL1        0.4186
     17 F         143.7879  144.2377  171.1858 F       1  UNL1       -0.1659
     18 F         141.9294  143.4739  170.5055 F       1  UNL1       -0.1659
     19 F         144.7974  142.6406  170.2213 F       1  UNL1       -0.1659
     20 C         139.7773  142.5444  164.4359 C.2     1  UNL1        0.2401
     21 O         139.5604  143.1692  164.8810 O.2     1  UNL1       -0.2736
     22 N         140.6181  141.3278  164.6870 N.am    1  UNL1       -0.2991
     23 H         140.7550  140.6674  163.9697 H       1  UNL1        0.1500
     24 C         139.1452  142.7549  163.0920 C.3     1  UNL1        0.1730
     25 C         138.8731  141.5808  162.1989 C.3     1  UNL1        0.2851
     26 O         138.0913  140.9255  163.2986 O.3     1  UNL1       -0.3715
     27 H         138.0886  141.5000  164.0802 H       1  UNL1        0.2109
     28 C         138.6010  140.4067  161.3059 C.3     1  UNL1        0.4292
     29 F         138.3289  139.2327  160.4129 F       1  UNL1       -0.1672
     30 F         140.0542  140.0372  161.3489 F       1  UNL1       -0.1672
     31 F         137.1256  140.6304  161.1544 F       1  UNL1       -0.1672
     32 C         139.6549  142.2361  161.0992 C.3     1  UNL1        0.4292
     33 F         140.5851  142.8618  160.1026 F       1  UNL1       -0.1672
     34 F         141.0064  142.1149  161.7383 F       1  UNL1       -0.1672
     35 F         138.6159  142.5913  160.0772 F       1  UNL1       -0.1672
     36 N         138.7851  144.1395  162.6411 N.3     1  UNL1       -0.2900
     37 H         138.2813  144.0405  161.7598 H       1  UNL1        0.1237
     38 C         139.5769  146.3802  161.5912 C.3     1  UNL1        0.0171
     39 C         139.8626  145.1576  162.4121 C.3     1  UNL1        0.0545
     40 C         141.2712  145.1124  162.9255 C.3     1  UNL1        0.0171
     41 C         139.8914  140.9520  166.6441 C.3     1  UNL1        0.0528
     42 C         139.1710  139.6413  166.5291 C.ar    1  UNL1       -0.0199
     43 C         138.0489  139.3171  167.4703 C.ar    1  UNL1       -0.0042
     44 C         137.3286  138.0064  167.3552 C.ar    1  UNL1       -0.0003
     45 C         137.7303  137.0200  166.2991 C.ar    1  UNL1       -0.0000
     46 C         138.8524  137.3441  165.3580 C.ar    1  UNL1       -0.0003
     47 C         139.5728  138.6548  165.4730 C.ar    1  UNL1       -0.0042
@<TRIPOS>BOND
     1    38    39    1
     2    39    40    1
     3    39    36    1
     4    36    24    1
     5    24    20    1
     6    20    21    2
     7    20    22   am
     8    22     1    1
     9     1    41    1
    10    41    42    1
    11    42    43   ar
    12    43    44   ar
    13    44    45   ar
    14    45    46   ar
    15    46    47   ar
    16     1     2    1
    17     2     3   ar
    18     3     4   ar
    19     4     5   ar
    20     5     6    1
    21     5     7   ar
    22     7     8   ar
    23     1     9    1
    24     9    10   ar
    25    10    11   ar
    26    11    12    1
    27    11    13   ar
    28    13    14   ar
    29    14    16    1
    30    16    17    1
    31    16    18    1
    32    16    19    1
    33    14    15   ar
    34    24    25    1
    35    25    26    1
    36    25    28    1
    37    28    29    1
    38    28    30    1
    39    28    31    1
    40    25    32    1
    41    32    33    1
    42    32    34    1
    43    32    35    1
    44    47    42   ar
    45     8     2   ar
    46    15     9   ar
    47    36    37    1
    48    22    23    1
    49    26    27    1
@<TRIPOS>MOLECULE
*****
 47 49 0 0 0
SMALL
GASTEIGER

@<TRIPOS>ATOM
      1 C         140.6743  141.1246  164.9322 C.3     1  UNL1        0.0988
      2 C         142.1398  141.2993  164.6641 C.ar    1  UNL1       -0.0020
      3 C         142.9411  140.1606  164.1060 C.ar    1  UNL1       -0.0001
      4 C         144.4065  140.3352  163.8379 C.ar    1  UNL1        0.0294
      5 C         145.0707  141.6485  164.1279 C.ar    1  UNL1        0.1401
      6 F         146.5362  141.8232  163.8598 F       1  UNL1       -0.2042
      7 C         144.2694  142.7872  164.6860 C.ar    1  UNL1        0.0294
      8 C         142.8040  142.6125  164.9540 C.ar    1  UNL1       -0.0001
      9 C         140.9256  141.2745  166.4033 C.ar    1  UNL1        0.0000
     10 C         140.5675  142.5544  167.0988 C.ar    1  UNL1        0.0272
     11 C         140.8188  142.7042  168.5700 C.ar    1  UNL1        0.1398
     12 F         140.4607  143.9841  169.2655 F       1  UNL1       -0.2042
     13 C         141.4282  141.5742  169.3457 C.ar    1  UNL1        0.0335
     14 C         141.7863  140.2944  168.6502 C.ar    1  UNL1        0.0734
     15 C         141.5350  140.1445  167.1791 C.ar    1  UNL1        0.0016
     16 C         142.3957  139.1643  169.4260 C.3     1  UNL1        0.4186
     17 F         143.0051  138.0344  170.2017 F       1  UNL1       -0.1659
     18 F         143.0120  138.6319  168.1663 F       1  UNL1       -0.1659
     19 F         141.7795  139.6968  170.6856 F       1  UNL1       -0.1659
     20 C         140.0013  142.1622  162.6473 C.2     1  UNL1        0.2401
     21 O         139.8634  142.9289  162.8168 O.2     1  UNL1       -0.2736
     22 N         140.4230  140.9747  163.4610 N.am    1  UNL1       -0.2991
     23 H         140.5348  140.0969  163.0294 H       1  UNL1        0.1500
     24 C         139.7500  142.0123  161.1762 C.3     1  UNL1        0.1730
     25 C         140.1858  140.7662  160.4640 C.3     1  UNL1        0.2851
     26 O         141.6133  141.0649  160.8149 O.3     1  UNL1       -0.3715
     27 H         141.6553  141.8890  161.3247 H       1  UNL1        0.2109
     28 C         140.6217  139.5201  159.7518 C.3     1  UNL1        0.4292
     29 F         141.0576  138.2740  159.0396 F       1  UNL1       -0.1672
     30 F         141.5362  140.3349  158.8858 F       1  UNL1       -0.1672
     31 F         139.7672  138.5595  160.5245 F       1  UNL1       -0.1672
     32 C         138.7584  140.4674  160.1131 C.3     1  UNL1        0.4292
     33 F         137.3822  140.1855  159.5872 F       1  UNL1       -0.1672
     34 F         138.9150  140.5504  158.6236 F       1  UNL1       -0.1672
     35 F         138.0897  140.2784  161.4425 F       1  UNL1       -0.1672
     36 N         139.0628  143.1086  160.4171 N.3     1  UNL1       -0.2900
     37 H         138.2988  142.6741  159.8994 H       1  UNL1        0.1237
     38 C         139.6079  143.7622  157.9624 C.3     1  UNL1        0.0171
     39 C         139.8349  143.9385  159.4346 C.3     1  UNL1        0.0545
     40 C         140.8647  144.9831  159.7480 C.3     1  UNL1        0.0171
     41 C         139.2089  140.9499  165.2003 C.3     1  UNL1        0.0528
     42 C         138.6834  139.6221  165.6594 C.ar    1  UNL1       -0.0199
     43 C         138.9674  138.3857  164.8591 C.ar    1  UNL1       -0.0042
     44 C         138.4420  137.0579  165.3182 C.ar    1  UNL1       -0.0003
     45 C         137.6325  136.9665  166.5778 C.ar    1  UNL1       -0.0000
     46 C         137.3485  138.2029  167.3781 C.ar    1  UNL1       -0.0003
     47 C         137.8739  139.5307  166.9190 C.ar    1  UNL1       -0.0042
@<TRIPOS>BOND
     1    38    39    1
     2    39    40    1
     3    39    36    1
     4    36    24    1
     5    24    20    1
     6    20    21    2
     7    20    22   am
     8    22     1    1
     9     1    41    1
    10    41    42    1
    11    42    43   ar
    12    43    44   ar
    13    44    45   ar
    14    45    46   ar
    15    46    47   ar
    16     1     2    1
    17     2     3   ar
    18     3     4   ar
    19     4     5   ar
    20     5     6    1
    21     5     7   ar
    22     7     8   ar
    23     1     9    1
    24     9    10   ar
    25    10    11   ar
    26    11    12    1
    27    11    13   ar
    28    13    14   ar
    29    14    16    1
    30    16    17    1
    31    16    18    1
    32    16    19    1
    33    14    15   ar
    34    24    25    1
    35    25    26    1
    36    25    28    1
    37    28    29    1
    38    28    30    1
    39    28    31    1
    40    25    32    1
    41    32    33    1
    42    32    34    1
    43    32    35    1
    44    47    42   ar
    45     8     2   ar
    46    15     9   ar
    47    36    37    1
    48    22    23    1
    49    26    27    1
@<TRIPOS>MOLECULE
*****
 47 49 0 0 0
SMALL
GASTEIGER

@<TRIPOS>ATOM
      1 C         140.9400  140.9304  165.5805 C.3     1  UNL1        0.0988
      2 C         140.0343  139.7409  165.7029 C.ar    1  UNL1       -0.0020
      3 C         140.3298  138.4904  164.9290 C.ar    1  UNL1       -0.0001
      4 C         139.4241  137.3010  165.0514 C.ar    1  UNL1        0.0294
      5 C         138.2229  137.3621  165.9477 C.ar    1  UNL1        0.1401
      6 F         137.3172  136.1727  166.0702 F       1  UNL1       -0.2042
      7 C         137.9274  138.6126  166.7216 C.ar    1  UNL1        0.0294
      8 C         138.8331  139.8020  166.5992 C.ar    1  UNL1       -0.0001
      9 C         141.1211  140.9457  167.0694 C.ar    1  UNL1        0.0000
     10 C         141.8930  139.8496  167.7424 C.ar    1  UNL1        0.0272
     11 C         142.0740  139.8650  169.2314 C.ar    1  UNL1        0.1398
     12 F         142.8459  138.7690  169.9044 F       1  UNL1       -0.2042
     13 C         141.4832  140.9764  170.0473 C.ar    1  UNL1        0.0335
     14 C         140.7114  142.0724  169.3744 C.ar    1  UNL1        0.0734
     15 C         140.5303  142.0571  167.8854 C.ar    1  UNL1        0.0016
     16 C         140.1206  143.1838  170.1904 C.3     1  UNL1        0.4186
     17 F         139.5298  144.2952  171.0063 F       1  UNL1       -0.1659
     18 F         138.9402  142.3173  170.5160 F       1  UNL1       -0.1659
     19 F         141.3009  144.0503  169.8648 F       1  UNL1       -0.1659
     20 C         139.7359  141.8059  163.4512 C.2     1  UNL1        0.2401
     21 O         139.2124  142.3381  163.7308 O.2     1  UNL1       -0.2736
     22 N         140.7589  140.9151  164.0916 N.am    1  UNL1       -0.2991
     23 H         141.3115  140.3204  163.5346 H       1  UNL1        0.1500
     24 C         139.5548  141.7906  161.9623 C.3     1  UNL1        0.1730
     25 C         140.0247  140.6123  161.1617 C.3     1  UNL1        0.2851
     26 O         141.4483  141.0307  161.3813 O.3     1  UNL1       -0.3715
     27 H         141.4688  141.8392  161.9168 H       1  UNL1        0.2109
     28 C         140.4945  139.4340  160.3611 C.3     1  UNL1        0.4292
     29 F         140.9644  138.2558  159.5605 F       1  UNL1       -0.1672
     30 F         139.8830  138.5057  161.3683 F       1  UNL1       -0.1672
     31 F         141.1587  140.2117  159.2639 F       1  UNL1       -0.1672
     32 C         138.6011  140.1938  160.9420 C.3     1  UNL1        0.4292
     33 F         137.2052  139.8140  160.5456 F       1  UNL1       -0.1672
     34 F         138.5668  140.4321  159.4616 F       1  UNL1       -0.1672
     35 F         138.1205  139.8097  162.3101 F       1  UNL1       -0.1672
     36 N         138.9039  142.9535  161.2739 N.3     1  UNL1       -0.2900
     37 H         138.3395  142.5690  160.5164 H       1  UNL1        0.1237
     38 C         140.1837  143.9490  159.2438 C.3     1  UNL1        0.0171
     39 C         139.7484  144.0398  160.6764 C.3     1  UNL1        0.0545
     40 C         140.2444  145.2781  161.3623 C.3     1  UNL1        0.0171
     41 C         141.8457  142.1198  165.4581 C.3     1  UNL1        0.0528
     42 C         143.1306  142.0084  164.6920 C.ar    1  UNL1       -0.0199
     43 C         143.9918  140.7899  164.8449 C.ar    1  UNL1       -0.0042
     44 C         145.2765  140.6786  164.0788 C.ar    1  UNL1       -0.0003
     45 C         145.7001  141.7858  163.1598 C.ar    1  UNL1       -0.0000
     46 C         144.8389  143.0044  163.0069 C.ar    1  UNL1       -0.0003
     47 C         143.5542  143.1157  163.7730 C.ar    1  UNL1       -0.0042
@<TRIPOS>BOND
     1    38    39    1
     2    39    40    1
     3    39    36    1
     4    36    24    1
     5    24    20    1
     6    20    21    2
     7    20    22   am
     8    22     1    1
     9     1    41    1
    10    41    42    1
    11    42    43   ar
    12    43    44   ar
    13    44    45   ar
    14    45    46   ar
    15    46    47   ar
    16     1     2    1
    17     2     3   ar
    18     3     4   ar
    19     4     5   ar
    20     5     6    1
    21     5     7   ar
    22     7     8   ar
    23     1     9    1
    24     9    10   ar
    25    10    11   ar
    26    11    12    1
    27    11    13   ar
    28    13    14   ar
    29    14    16    1
    30    16    17    1
    31    16    18    1
    32    16    19    1
    33    14    15   ar
    34    24    25    1
    35    25    26    1
    36    25    28    1
    37    28    29    1
    38    28    30    1
    39    28    31    1
    40    25    32    1
    41    32    33    1
    42    32    34    1
    43    32    35    1
    44    47    42   ar
    45     8     2   ar
    46    15     9   ar
    47    36    37    1
    48    22    23    1
    49    26    27    1
@<TRIPOS>MOLECULE
*****
 47 49 0 0 0
SMALL
GASTEIGER

@<TRIPOS>ATOM
      1 C         140.8584  141.1572  165.0324 C.3     1  UNL1        0.0988
      2 C         142.3041  141.3051  164.6605 C.ar    1  UNL1       -0.0020
      3 C         143.0375  140.1584  164.0302 C.ar    1  UNL1       -0.0001
      4 C         144.4831  140.3062  163.6583 C.ar    1  UNL1        0.0294
      5 C         145.1953  141.6008  163.9167 C.ar    1  UNL1        0.1401
      6 F         146.6410  141.7486  163.5448 F       1  UNL1       -0.2042
      7 C         144.4620  142.7475  164.5470 C.ar    1  UNL1        0.0294
      8 C         143.0164  142.5996  164.9189 C.ar    1  UNL1       -0.0001
      9 C         141.2326  141.1532  166.4849 C.ar    1  UNL1        0.0000
     10 C         141.8578  139.9337  167.0950 C.ar    1  UNL1        0.0272
     11 C         142.2320  139.9297  168.5476 C.ar    1  UNL1        0.1398
     12 F         142.8572  138.7103  169.1576 F       1  UNL1       -0.2042
     13 C         141.9809  141.1450  169.3901 C.ar    1  UNL1        0.0335
     14 C         141.3557  142.3645  168.7801 C.ar    1  UNL1        0.0734
     15 C         140.9815  142.3685  167.3275 C.ar    1  UNL1        0.0016
     16 C         141.1046  143.5798  169.6227 C.3     1  UNL1        0.4186
     17 F         140.8535  144.7952  170.4652 F       1  UNL1       -0.1659
     18 F         142.2650  143.2119  170.4992 F       1  UNL1       -0.1659
     19 F         139.9443  143.9477  168.7462 F       1  UNL1       -0.1659
     20 C         139.8302  142.3692  162.9772 C.2     1  UNL1        0.2401
     21 O         139.6095  143.0800  163.2629 O.2     1  UNL1       -0.2736
     22 N         140.4843  141.1613  163.5798 N.am    1  UNL1       -0.2991
     23 H         140.6680  140.3712  163.0220 H       1  UNL1        0.1500
     24 C         139.4560  142.3733  161.5246 C.3     1  UNL1        0.1730
     25 C         139.3369  141.0782  160.7772 C.3     1  UNL1        0.2851
     26 O         138.2629  140.6306  161.7239 O.3     1  UNL1       -0.3715
     27 H         138.1040  141.3237  162.3836 H       1  UNL1        0.2109
     28 C         139.2177  139.7832  160.0298 C.3     1  UNL1        0.4292
     29 F         139.0986  138.4882  159.2824 F       1  UNL1       -0.1672
     30 F         137.7526  140.0342  159.8283 F       1  UNL1       -0.1672
     31 F         140.6573  139.3762  160.1386 F       1  UNL1       -0.1672
     32 C         140.4109  141.5258  159.8305 C.3     1  UNL1        0.4292
     33 F         141.3549  141.9751  158.7548 F       1  UNL1       -0.1672
     34 F         139.5479  141.6224  158.6075 F       1  UNL1       -0.1672
     35 F         141.6424  141.5929  160.6843 F       1  UNL1       -0.1672
     36 N         139.2010  143.6724  160.8195 N.3     1  UNL1       -0.2900
     37 H         139.2447  143.4780  159.8191 H       1  UNL1        0.1237
     38 C         141.5502  144.7771  160.7153 C.3     1  UNL1        0.0171
     39 C         140.0949  144.8505  161.0711 C.3     1  UNL1        0.0545
     40 C         139.7029  146.1701  161.6666 C.3     1  UNL1        0.0171
     41 C         139.4129  141.0094  165.4043 C.3     1  UNL1        0.0528
     42 C         138.8573  139.6549  165.7311 C.ar    1  UNL1       -0.0199
     43 C         139.1946  138.4771  164.8657 C.ar    1  UNL1       -0.0042
     44 C         138.6390  137.1227  165.1926 C.ar    1  UNL1       -0.0003
     45 C         137.7461  136.9461  166.3849 C.ar    1  UNL1       -0.0000
     46 C         137.4087  138.1239  167.2503 C.ar    1  UNL1       -0.0003
     47 C         137.9643  139.4783  166.9234 C.ar    1  UNL1       -0.0042
@<TRIPOS>BOND
     1    38    39    1
     2    39    40    1
     3    39    36    1
     4    36    24    1
     5    24    20    1
     6    20    21    2
     7    20    22   am
     8    22     1    1
     9     1    41    1
    10    41    42    1
    11    42    43   ar
    12    43    44   ar
    13    44    45   ar
    14    45    46   ar
    15    46    47   ar
    16     1     2    1
    17     2     3   ar
    18     3     4   ar
    19     4     5   ar
    20     5     6    1
    21     5     7   ar
    22     7     8   ar
    23     1     9    1
    24     9    10   ar
    25    10    11   ar
    26    11    12    1
    27    11    13   ar
    28    13    14   ar
    29    14    16    1
    30    16    17    1
    31    16    18    1
    32    16    19    1
    33    14    15   ar
    34    24    25    1
    35    25    26    1
    36    25    28    1
    37    28    29    1
    38    28    30    1
    39    28    31    1
    40    25    32    1
    41    32    33    1
    42    32    34    1
    43    32    35    1
    44    47    42   ar
    45     8     2   ar
    46    15     9   ar
    47    36    37    1
    48    22    23    1
    49    26    27    1
@<TRIPOS>MOLECULE
*****
 47 49 0 0 0
SMALL
GASTEIGER

@<TRIPOS>ATOM
      1 C         141.0110  141.1387  164.9302 C.3     1  UNL1        0.0988
      2 C         142.4749  141.2646  164.6282 C.ar    1  UNL1       -0.0020
      3 C         143.2069  142.5266  164.9770 C.ar    1  UNL1       -0.0001
      4 C         144.6707  142.6524  164.6750 C.ar    1  UNL1        0.0294
      5 C         145.4026  141.5164  164.0242 C.ar    1  UNL1        0.1401
      6 F         146.8665  141.6422  163.7221 F       1  UNL1       -0.2042
      7 C         144.6706  140.2544  163.6753 C.ar    1  UNL1        0.0294
      8 C         143.2068  140.1285  163.9773 C.ar    1  UNL1       -0.0001
      9 C         141.3122  141.1617  166.3994 C.ar    1  UNL1        0.0000
     10 C         141.9764  139.9831  167.0474 C.ar    1  UNL1        0.0272
     11 C         142.2776  140.0061  168.5167 C.ar    1  UNL1        0.1398
     12 F         142.9418  138.8276  169.1647 F       1  UNL1       -0.2042
     13 C         141.9146  141.2077  169.3380 C.ar    1  UNL1        0.0335
     14 C         141.2504  142.3862  168.6900 C.ar    1  UNL1        0.0734
     15 C         140.9492  142.3633  167.2208 C.ar    1  UNL1        0.0016
     16 C         140.8874  143.5878  169.5114 C.3     1  UNL1        0.4186
     17 F         140.5244  144.7893  170.3328 F       1  UNL1       -0.1659
     18 F         139.8910  143.9997  168.4685 F       1  UNL1       -0.1659
     19 F         141.8837  143.1759  170.5542 F       1  UNL1       -0.1659
     20 C         140.4368  142.3976  162.7312 C.2     1  UNL1        0.2401
     21 O         140.4088  143.1639  162.9492 O.2     1  UNL1       -0.2736
     22 N         140.7098  141.1158  163.4610 N.am    1  UNL1       -0.2991
     23 H         140.6912  140.2594  162.9756 H       1  UNL1        0.1500
     24 C         140.1356  142.3746  161.2619 C.3     1  UNL1        0.1730
     25 C         141.2086  142.7164  160.2709 C.3     1  UNL1        0.2851
     26 O         142.2095  141.9608  161.0940 O.3     1  UNL1       -0.3715
     27 H         141.7711  141.5896  161.8756 H       1  UNL1        0.2109
     28 C         142.2815  143.0580  159.2800 C.3     1  UNL1        0.4292
     29 F         143.3545  143.3997  158.2890 F       1  UNL1       -0.1672
     30 F         142.6074  141.6015  159.1305 F       1  UNL1       -0.1672
     31 F         142.0889  144.5453  159.3075 F       1  UNL1       -0.1672
     32 C         140.2078  143.4719  159.4478 C.3     1  UNL1        0.4292
     33 F         139.2352  144.1013  158.4950 F       1  UNL1       -0.1672
     34 F         140.2548  142.5825  158.2410 F       1  UNL1       -0.1672
     35 F         139.8004  144.6144  160.3304 F       1  UNL1       -0.1672
     36 N         138.7615  142.0100  160.7836 N.3     1  UNL1       -0.2900
     37 H         138.2436  142.8829  160.6826 H       1  UNL1        0.1237
     38 C         137.7735  139.6457  161.2128 C.3     1  UNL1        0.0171
     39 C         137.9032  141.0892  161.5995 C.3     1  UNL1        0.0545
     40 C         137.1106  141.4416  162.8232 C.3     1  UNL1        0.0171
     41 C         139.5471  141.0129  165.2323 C.3     1  UNL1        0.0528
     42 C         138.9707  139.6799  165.6078 C.ar    1  UNL1       -0.0199
     43 C         138.0526  139.5656  166.7885 C.ar    1  UNL1       -0.0042
     44 C         137.4762  138.2327  167.1640 C.ar    1  UNL1       -0.0003
     45 C         137.8179  137.0141  166.3589 C.ar    1  UNL1       -0.0000
     46 C         138.7360  137.1284  165.1782 C.ar    1  UNL1       -0.0003
     47 C         139.3124  138.4613  164.8027 C.ar    1  UNL1       -0.0042
@<TRIPOS>BOND
     1    38    39    1
     2    39    40    1
     3    39    36    1
     4    36    24    1
     5    24    20    1
     6    20    21    2
     7    20    22   am
     8    22     1    1
     9     1    41    1
    10    41    42    1
    11    42    43   ar
    12    43    44   ar
    13    44    45   ar
    14    45    46   ar
    15    46    47   ar
    16     1     2    1
    17     2     3   ar
    18     3     4   ar
    19     4     5   ar
    20     5     6    1
    21     5     7   ar
    22     7     8   ar
    23     1     9    1
    24     9    10   ar
    25    10    11   ar
    26    11    12    1
    27    11    13   ar
    28    13    14   ar
    29    14    16    1
    30    16    17    1
    31    16    18    1
    32    16    19    1
    33    14    15   ar
    34    24    25    1
    35    25    26    1
    36    25    28    1
    37    28    29    1
    38    28    30    1
    39    28    31    1
    40    25    32    1
    41    32    33    1
    42    32    34    1
    43    32    35    1
    44    47    42   ar
    45     8     2   ar
    46    15     9   ar
    47    36    37    1
    48    22    23    1
    49    26    27    1
