@<TRIPOS>MOLECULE
*****
 32 36 0 0 0
SMALL
GASTEIGER

@<TRIPOS>ATOM
      1 N         142.8827  138.8952  163.3703 N.3     1  UNL1       -0.2726
      2 C         144.0575  139.2125  162.4934 C.3     1  UNL1        0.0721
      3 C         144.6912  140.4720  163.0053 C.3     1  UNL1        0.0190
      4 C         143.9079  140.9332  164.1985 C.3     1  UNL1        0.0201
      5 C         144.7418  142.1495  164.4729 C.3     1  UNL1        0.0061
      6 C         143.5669  141.8322  165.3498 C.3     1  UNL1        0.0237
      7 C         142.7902  139.9587  164.4241 C.3     1  UNL1        0.0724
      8 C         142.6917  142.1681  166.5208 C.ar    1  UNL1       -0.0225
      9 C         143.2572  142.1481  167.9100 C.ar    1  UNL1       -0.0043
     10 C         142.3820  142.4840  169.0809 C.ar    1  UNL1        0.0035
     11 C         140.9412  142.8398  168.8627 C.ar    1  UNL1        0.0714
     12 C         140.3757  142.8598  167.4735 C.ar    1  UNL1        0.0035
     13 C         141.2509  142.5239  166.3026 C.ar    1  UNL1       -0.0043
     14 C         140.0660  143.1757  170.0337 C.3     1  UNL1        0.4186
     15 F         139.1907  143.5115  171.2047 F       1  UNL1       -0.1659
     16 F         140.6051  144.5754  170.0351 F       1  UNL1       -0.1659
     17 F         139.5269  141.7759  170.0322 F       1  UNL1       -0.1659
     18 C         141.9618  137.7207  163.2198 C.3     1  UNL1        0.0730
     19 C         141.2325  137.1816  164.4146 C.3     1  UNL1        0.0294
     20 C         139.9015  137.7544  164.8023 C.3     1  UNL1        0.0666
     21 S         139.0517  138.4400  163.7738 S.3     1  UNL1       -0.0756
     22 C         140.2444  140.6191  161.6574 C.3     1  UNL1        0.1340
     23 N         139.4031  140.9275  162.8604 N.ar    1  UNL1       -0.2872
     24 C         138.8549  139.9259  163.8332 C.ar    1  UNL1        0.1933
     25 N         138.0753  140.6709  164.8758 N.ar    1  UNL1       -0.1221
     26 N         138.1417  142.1330  164.5475 N.ar    1  UNL1       -0.1266
     27 C         138.9623  142.2916  163.3019 C.ar    1  UNL1        0.1870
     28 C         139.2854  143.5869  162.6178 C.ar    1  UNL1        0.1472
     29 C         140.0309  144.7404  163.2209 C.ar    1  UNL1        0.0805
     30 S         140.1259  145.8225  162.1865 S.2     1  UNL1        0.0379
     31 N         139.4392  145.3378  160.9442 N.ar    1  UNL1       -0.1093
     32 N         138.9197  143.9561  161.2107 N.ar    1  UNL1       -0.1373
@<TRIPOS>BOND
     1    22    23    1
     2    23    24   ar
     3    24    21    1
     4    21    20    1
     5    20    19    1
     6    19    18    1
     7    18     1    1
     8     1     2    1
     9     2     3    1
    10     4     3    1
    11     4     5    1
    12     5     6    1
    13     6     8    1
    14     8     9   ar
    15     9    10   ar
    16    10    11   ar
    17    11    14    1
    18    14    15    1
    19    14    16    1
    20    14    17    1
    21    11    12   ar
    22    12    13   ar
    23     4     7    1
    24    24    25   ar
    25    25    26   ar
    26    26    27   ar
    27    27    28    1
    28    28    29   ar
    29    29    30   ar
    30    30    31   ar
    31    31    32   ar
    32    27    23   ar
    33    32    28   ar
    34     7     1    1
    35     6     4    1
    36    13     8   ar
@<TRIPOS>MOLECULE
*****
 32 36 0 0 0
SMALL
GASTEIGER

@<TRIPOS>ATOM
      1 N         143.2631  143.4023  163.0667 N.3     1  UNL1       -0.2726
      2 C         143.1556  144.8955  162.9721 C.3     1  UNL1        0.0721
      3 C         141.8826  145.3122  163.6473 C.3     1  UNL1        0.0190
      4 C         141.2034  144.0766  164.1591 C.3     1  UNL1        0.0201
      5 C         140.0207  144.7825  164.7533 C.3     1  UNL1        0.0061
      6 C         140.1282  143.2894  164.8479 C.3     1  UNL1        0.0237
      7 C         142.0566  142.8962  163.8003 C.3     1  UNL1        0.0724
      8 C         139.5696  141.9728  165.3001 C.ar    1  UNL1       -0.0225
      9 C         138.6369  141.2078  164.4085 C.ar    1  UNL1       -0.0043
     10 C         138.0783  139.8912  164.8607 C.ar    1  UNL1        0.0035
     11 C         138.4523  139.3397  166.2045 C.ar    1  UNL1        0.0714
     12 C         139.3849  140.1047  167.0961 C.ar    1  UNL1        0.0035
     13 C         139.9436  141.4213  166.6439 C.ar    1  UNL1       -0.0043
     14 C         137.8936  138.0231  166.6568 C.3     1  UNL1        0.4186
     15 F         137.3350  136.7064  167.1090 F       1  UNL1       -0.1659
     16 F         137.2912  138.6911  167.8571 F       1  UNL1       -0.1659
     17 F         138.4961  137.3552  165.4564 F       1  UNL1       -0.1659
     18 C         144.3809  142.5626  162.5231 C.3     1  UNL1        0.0730
     19 C         145.4423  142.0392  163.4448 C.3     1  UNL1        0.0294
     20 C         145.1699  140.8335  164.2945 C.3     1  UNL1        0.0666
     21 S         144.9054  139.5054  163.6493 S.3     1  UNL1       -0.0756
     22 C         141.7386  139.2170  164.3826 C.3     1  UNL1        0.1340
     23 N         142.3267  139.2274  163.0028 N.ar    1  UNL1       -0.2872
     24 C         143.7824  139.3600  162.6657 C.ar    1  UNL1        0.1933
     25 N         143.9178  139.3216  161.1723 N.ar    1  UNL1       -0.1221
     26 N         142.5458  139.1652  160.5864 N.ar    1  UNL1       -0.1266
     27 C         141.5624  139.1070  161.7176 C.ar    1  UNL1        0.1870
     28 C         140.0759  138.9552  161.5868 C.ar    1  UNL1        0.1472
     29 C         139.1476  139.9184  160.9083 C.ar    1  UNL1        0.0805
     30 S         137.7546  139.3720  161.0136 S.2     1  UNL1        0.0379
     31 N         137.8221  138.0710  161.7571 N.ar    1  UNL1       -0.1093
     32 N         139.2567  137.8134  162.1114 N.ar    1  UNL1       -0.1373
@<TRIPOS>BOND
     1    22    23    1
     2    23    24   ar
     3    24    21    1
     4    21    20    1
     5    20    19    1
     6    19    18    1
     7    18     1    1
     8     1     2    1
     9     2     3    1
    10     4     3    1
    11     4     5    1
    12     5     6    1
    13     6     8    1
    14     8     9   ar
    15     9    10   ar
    16    10    11   ar
    17    11    14    1
    18    14    15    1
    19    14    16    1
    20    14    17    1
    21    11    12   ar
    22    12    13   ar
    23     4     7    1
    24    24    25   ar
    25    25    26   ar
    26    26    27   ar
    27    27    28    1
    28    28    29   ar
    29    29    30   ar
    30    30    31   ar
    31    31    32   ar
    32    27    23   ar
    33    32    28   ar
    34     7     1    1
    35     6     4    1
    36    13     8   ar
@<TRIPOS>MOLECULE
*****
 32 36 0 0 0
SMALL
GASTEIGER

@<TRIPOS>ATOM
      1 N         143.0804  143.1896  161.8728 N.3     1  UNL1       -0.2726
      2 C         144.3848  142.8576  161.2105 C.3     1  UNL1        0.0721
      3 C         145.1715  141.9882  162.1460 C.3     1  UNL1        0.0190
      4 C         144.3534  141.7828  163.3864 C.3     1  UNL1        0.0201
      5 C         145.3549  140.9185  164.0935 C.3     1  UNL1        0.0061
      6 C         144.0506  141.2505  164.7557 C.3     1  UNL1        0.0237
      7 C         143.0610  142.5253  163.2175 C.3     1  UNL1        0.0724
      8 C         143.1227  141.1348  165.9286 C.ar    1  UNL1       -0.0225
      9 C         143.0811  142.2213  166.9620 C.ar    1  UNL1       -0.0043
     10 C         142.1532  142.1056  168.1349 C.ar    1  UNL1        0.0035
     11 C         141.2670  140.9034  168.2744 C.ar    1  UNL1        0.0714
     12 C         141.3087  139.8170  167.2410 C.ar    1  UNL1        0.0035
     13 C         142.2365  139.9326  166.0681 C.ar    1  UNL1       -0.0043
     14 C         140.3391  140.7878  169.4472 C.3     1  UNL1        0.4186
     15 F         139.4112  140.6721  170.6202 F       1  UNL1       -0.1659
     16 F         140.8247  139.3901  169.6935 F       1  UNL1       -0.1659
     17 F         139.8536  142.1854  169.2009 F       1  UNL1       -0.1659
     18 C         141.9874  144.0370  161.2922 C.3     1  UNL1        0.0730
     19 C         141.3704  145.1308  162.1126 C.3     1  UNL1        0.0294
     20 C         139.9548  145.5545  161.8545 C.3     1  UNL1        0.0666
     21 S         138.8535  145.0786  162.7549 S.3     1  UNL1       -0.0756
     22 C         139.7766  142.8957  164.9982 C.3     1  UNL1        0.1340
     23 N         138.9032  142.6230  163.8096 N.ar    1  UNL1       -0.2872
     24 C         138.4789  143.6264  162.7785 C.ar    1  UNL1        0.1933
     25 N         137.6141  142.9225  161.7751 N.ar    1  UNL1       -0.1221
     26 N         137.5040  141.4841  162.1861 N.ar    1  UNL1       -0.1266
     27 C         138.3007  141.2990  163.4435 C.ar    1  UNL1        0.1870
     28 C         138.4658  140.0152  164.2016 C.ar    1  UNL1        0.1472
     29 C         139.1203  138.7666  163.6892 C.ar    1  UNL1        0.0805
     30 S         139.0645  137.7344  164.7761 S.2     1  UNL1        0.0379
     31 N         138.3755  138.3451  165.9603 N.ar    1  UNL1       -0.1093
     32 N         138.0055  139.7548  165.6053 N.ar    1  UNL1       -0.1373
@<TRIPOS>BOND
     1    22    23    1
     2    23    24   ar
     3    24    21    1
     4    21    20    1
     5    20    19    1
     6    19    18    1
     7    18     1    1
     8     1     2    1
     9     2     3    1
    10     4     3    1
    11     4     5    1
    12     5     6    1
    13     6     8    1
    14     8     9   ar
    15     9    10   ar
    16    10    11   ar
    17    11    14    1
    18    14    15    1
    19    14    16    1
    20    14    17    1
    21    11    12   ar
    22    12    13   ar
    23     4     7    1
    24    24    25   ar
    25    25    26   ar
    26    26    27   ar
    27    27    28    1
    28    28    29   ar
    29    29    30   ar
    30    30    31   ar
    31    31    32   ar
    32    27    23   ar
    33    32    28   ar
    34     7     1    1
    35     6     4    1
    36    13     8   ar
@<TRIPOS>MOLECULE
*****
 32 36 0 0 0
SMALL
GASTEIGER

@<TRIPOS>ATOM
      1 N         138.0836  140.0446  162.9037 N.3     1  UNL1       -0.2726
      2 C         138.0484  138.6734  162.2966 C.3     1  UNL1        0.0721
      3 C         138.9611  137.7898  163.0943 C.3     1  UNL1        0.0190
      4 C         139.5603  138.6149  164.1944 C.3     1  UNL1        0.0201
      5 C         140.3837  137.5105  164.7880 C.3     1  UNL1        0.0061
      6 C         140.4188  138.8817  165.3951 C.3     1  UNL1        0.0237
      7 C         139.0180  140.0084  164.0766 C.3     1  UNL1        0.0724
      8 C         140.9348  139.8274  166.4388 C.ar    1  UNL1       -0.0225
      9 C         142.3627  140.2848  166.3963 C.ar    1  UNL1       -0.0043
     10 C         142.8787  141.2305  167.4401 C.ar    1  UNL1        0.0035
     11 C         141.9667  141.7188  168.5263 C.ar    1  UNL1        0.0714
     12 C         140.5388  141.2613  168.5688 C.ar    1  UNL1        0.0035
     13 C         140.0228  140.3156  167.5250 C.ar    1  UNL1       -0.0043
     14 C         142.4827  142.6645  169.5700 C.3     1  UNL1        0.4186
     15 F         142.9986  143.6103  170.6138 F       1  UNL1       -0.1659
     16 F         143.7739  141.9029  169.6218 F       1  UNL1       -0.1659
     17 F         141.1915  143.4261  169.5183 F       1  UNL1       -0.1659
     18 C         137.3186  141.2418  162.4225 C.3     1  UNL1        0.0730
     19 C         138.0490  142.4965  162.0453 C.3     1  UNL1        0.0294
     20 C         137.7953  143.7678  162.8000 C.3     1  UNL1        0.0666
     21 S         138.8230  144.8604  162.7955 S.3     1  UNL1       -0.0756
     22 C         140.9164  142.9463  164.4090 C.3     1  UNL1        0.1340
     23 N         141.1976  143.6800  163.1312 N.ar    1  UNL1       -0.2872
     24 C         140.2354  144.5598  162.3896 C.ar    1  UNL1        0.1933
     25 N         140.9335  145.0864  161.1708 N.ar    1  UNL1       -0.1221
     26 N         142.3273  144.5319  161.1592 N.ar    1  UNL1       -0.1266
     27 C         142.4905  143.6627  162.3708 C.ar    1  UNL1        0.1870
     28 C         143.7292  142.9087  162.7546 C.ar    1  UNL1        0.1472
     29 C         144.3164  142.8206  164.1320 C.ar    1  UNL1        0.0805
     30 S         145.5482  141.9678  164.0571 S.2     1  UNL1        0.0379
     31 N         145.7221  141.5290  162.6333 N.ar    1  UNL1       -0.1093
     32 N         144.5979  142.1105  161.8283 N.ar    1  UNL1       -0.1373
@<TRIPOS>BOND
     1    22    23    1
     2    23    24   ar
     3    24    21    1
     4    21    20    1
     5    20    19    1
     6    19    18    1
     7    18     1    1
     8     1     2    1
     9     2     3    1
    10     4     3    1
    11     4     5    1
    12     5     6    1
    13     6     8    1
    14     8     9   ar
    15     9    10   ar
    16    10    11   ar
    17    11    14    1
    18    14    15    1
    19    14    16    1
    20    14    17    1
    21    11    12   ar
    22    12    13   ar
    23     4     7    1
    24    24    25   ar
    25    25    26   ar
    26    26    27   ar
    27    27    28    1
    28    28    29   ar
    29    29    30   ar
    30    30    31   ar
    31    31    32   ar
    32    27    23   ar
    33    32    28   ar
    34     7     1    1
    35     6     4    1
    36    13     8   ar
@<TRIPOS>MOLECULE
*****
 32 36 0 0 0
SMALL
GASTEIGER

@<TRIPOS>ATOM
      1 N         141.2109  138.3392  163.1819 N.3     1  UNL1       -0.2726
      2 C         139.9413  137.6130  162.8491 C.3     1  UNL1        0.0721
      3 C         138.9781  137.8213  163.9800 C.3     1  UNL1        0.0190
      4 C         139.6525  138.6762  165.0117 C.3     1  UNL1        0.0201
      5 C         138.4979  138.7070  165.9688 C.3     1  UNL1        0.0061
      6 C         139.7675  139.4332  166.3016 C.3     1  UNL1        0.0237
      7 C         141.0324  138.9962  164.5184 C.3     1  UNL1        0.0724
      8 C         140.5669  140.2896  167.2383 C.ar    1  UNL1       -0.0225
      9 C         140.1059  141.6798  167.5619 C.ar    1  UNL1       -0.0043
     10 C         140.9053  142.5361  168.4987 C.ar    1  UNL1        0.0035
     11 C         142.1658  142.0022  169.1119 C.ar    1  UNL1        0.0714
     12 C         142.6269  140.6120  168.7883 C.ar    1  UNL1        0.0035
     13 C         141.8274  139.7556  167.8516 C.ar    1  UNL1       -0.0043
     14 C         142.9652  142.8586  170.0487 C.3     1  UNL1        0.4186
     15 F         143.7647  143.7150  170.9855 F       1  UNL1       -0.1659
     16 F         144.0990  141.8791  169.9765 F       1  UNL1       -0.1659
     17 F         141.8315  143.8380  170.1209 F       1  UNL1       -0.1659
     18 C         142.4427  138.3980  162.3280 C.3     1  UNL1        0.0730
     19 C         143.7572  138.7915  162.9339 C.3     1  UNL1        0.0294
     20 C         144.5668  139.8941  162.3185 C.3     1  UNL1        0.0666
     21 S         144.7815  141.1753  163.0684 S.3     1  UNL1       -0.0756
     22 C         142.1525  142.0798  161.3596 C.3     1  UNL1        0.1340
     23 N         142.3967  142.3555  162.8137 N.ar    1  UNL1       -0.2872
     24 C         143.6051  141.9398  163.5992 C.ar    1  UNL1        0.1933
     25 N         143.4307  142.4227  165.0085 N.ar    1  UNL1       -0.1221
     26 N         142.1144  143.1369  165.0942 N.ar    1  UNL1       -0.1266
     27 C         141.4753  143.0954  163.7377 C.ar    1  UNL1        0.1870
     28 C         140.1480  143.6895  163.3699 C.ar    1  UNL1        0.1472
     29 C         138.8103  143.2433  163.8811 C.ar    1  UNL1        0.0805
     30 S         137.7609  144.1121  163.2534 S.2     1  UNL1        0.0379
     31 N         138.4501  145.0952  162.3543 N.ar    1  UNL1       -0.1093
     32 N         139.9254  144.8341  162.4263 N.ar    1  UNL1       -0.1373
@<TRIPOS>BOND
     1    22    23    1
     2    23    24   ar
     3    24    21    1
     4    21    20    1
     5    20    19    1
     6    19    18    1
     7    18     1    1
     8     1     2    1
     9     2     3    1
    10     4     3    1
    11     4     5    1
    12     5     6    1
    13     6     8    1
    14     8     9   ar
    15     9    10   ar
    16    10    11   ar
    17    11    14    1
    18    14    15    1
    19    14    16    1
    20    14    17    1
    21    11    12   ar
    22    12    13   ar
    23     4     7    1
    24    24    25   ar
    25    25    26   ar
    26    26    27   ar
    27    27    28    1
    28    28    29   ar
    29    29    30   ar
    30    30    31   ar
    31    31    32   ar
    32    27    23   ar
    33    32    28   ar
    34     7     1    1
    35     6     4    1
    36    13     8   ar
@<TRIPOS>MOLECULE
*****
 32 36 0 0 0
SMALL
GASTEIGER

@<TRIPOS>ATOM
      1 N         141.9088  138.1590  163.2891 N.3     1  UNL1       -0.2726
      2 C         143.1570  138.1864  162.4577 C.3     1  UNL1        0.0721
      3 C         144.0686  139.2340  163.0247 C.3     1  UNL1        0.0190
      4 C         143.3838  139.8540  164.2065 C.3     1  UNL1        0.0201
      5 C         144.4868  140.8139  164.5411 C.3     1  UNL1        0.0061
      6 C         143.2386  140.7864  165.3725 C.3     1  UNL1        0.0237
      7 C         142.0490  139.1896  164.3699 C.3     1  UNL1        0.0724
      8 C         142.4341  141.3089  166.5256 C.ar    1  UNL1       -0.0225
      9 C         142.6650  140.7702  167.9064 C.ar    1  UNL1       -0.0043
     10 C         141.8605  141.2927  169.0596 C.ar    1  UNL1        0.0035
     11 C         140.8251  142.3539  168.8319 C.ar    1  UNL1        0.0714
     12 C         140.5942  142.8926  167.4511 C.ar    1  UNL1        0.0035
     13 C         141.3987  142.3701  166.2980 C.ar    1  UNL1       -0.0043
     14 C         140.0206  142.8764  169.9851 C.3     1  UNL1        0.4186
     15 F         139.2161  143.3989  171.1383 F       1  UNL1       -0.1659
     16 F         139.2775  141.5754  170.0561 F       1  UNL1       -0.1659
     17 F         140.7637  144.1774  169.9140 F       1  UNL1       -0.1659
     18 C         140.7277  137.2589  163.0769 C.3     1  UNL1        0.0730
     19 C         139.3474  137.7415  163.4111 C.3     1  UNL1        0.0294
     20 C         138.3625  138.0161  162.3136 C.3     1  UNL1        0.0666
     21 S         138.2136  139.4062  161.7700 S.3     1  UNL1       -0.0756
     22 C         138.8067  141.9878  163.6761 C.3     1  UNL1        0.1340
     23 N         139.6804  141.4964  162.5602 N.ar    1  UNL1       -0.2872
     24 C         139.4078  140.3098  161.6841 C.ar    1  UNL1        0.1933
     25 N         140.5391  140.1853  160.7070 N.ar    1  UNL1       -0.1221
     26 N         141.5108  141.2951  160.9792 N.ar    1  UNL1       -0.1266
     27 C         140.9802  142.1054  162.1246 C.ar    1  UNL1        0.1870
     28 C         141.6345  143.3127  162.7283 C.ar    1  UNL1        0.1472
     29 C         143.1108  143.5362  162.8718 C.ar    1  UNL1        0.0805
     30 S         143.3160  144.8701  163.5267 S.2     1  UNL1        0.0379
     31 N         141.9666  145.4708  163.7878 N.ar    1  UNL1       -0.1093
     32 N         140.9273  144.5083  163.2943 N.ar    1  UNL1       -0.1373
@<TRIPOS>BOND
     1    22    23    1
     2    23    24   ar
     3    24    21    1
     4    21    20    1
     5    20    19    1
     6    19    18    1
     7    18     1    1
     8     1     2    1
     9     2     3    1
    10     4     3    1
    11     4     5    1
    12     5     6    1
    13     6     8    1
    14     8     9   ar
    15     9    10   ar
    16    10    11   ar
    17    11    14    1
    18    14    15    1
    19    14    16    1
    20    14    17    1
    21    11    12   ar
    22    12    13   ar
    23     4     7    1
    24    24    25   ar
    25    25    26   ar
    26    26    27   ar
    27    27    28    1
    28    28    29   ar
    29    29    30   ar
    30    30    31   ar
    31    31    32   ar
    32    27    23   ar
    33    32    28   ar
    34     7     1    1
    35     6     4    1
    36    13     8   ar
@<TRIPOS>MOLECULE
*****
 32 36 0 0 0
SMALL
GASTEIGER

@<TRIPOS>ATOM
      1 N         141.5746  144.4142  162.6910 N.3     1  UNL1       -0.2726
      2 C         140.4527  145.3449  162.3374 C.3     1  UNL1        0.0721
      3 C         139.3833  145.1985  163.3791 C.3     1  UNL1        0.0190
      4 C         139.8444  144.1774  164.3765 C.3     1  UNL1        0.0201
      5 C         138.6254  144.2476  165.2477 C.3     1  UNL1        0.0061
      6 C         139.7473  143.3169  165.6013 C.3     1  UNL1        0.0237
      7 C         141.1987  143.6927  163.9512 C.3     1  UNL1        0.0724
      8 C         140.3391  142.2828  166.5125 C.ar    1  UNL1       -0.0225
      9 C         139.6364  140.9735  166.7176 C.ar    1  UNL1       -0.0043
     10 C         140.2282  139.9394  167.6288 C.ar    1  UNL1        0.0035
     11 C         141.5226  140.2145  168.3350 C.ar    1  UNL1        0.0714
     12 C         142.2253  141.5238  168.1300 C.ar    1  UNL1        0.0035
     13 C         141.6335  142.5579  167.2187 C.ar    1  UNL1       -0.0043
     14 C         142.1143  139.1804  169.2463 C.3     1  UNL1        0.4186
     15 F         142.7061  138.1462  170.1576 F       1  UNL1       -0.1659
     16 F         141.1532  139.5817  170.3258 F       1  UNL1       -0.1659
     17 F         143.0754  138.7792  168.1668 F       1  UNL1       -0.1659
     18 C         142.8488  144.2363  161.9198 C.3     1  UNL1        0.0730
     19 C         144.1238  143.9149  162.6417 C.3     1  UNL1        0.0294
     20 C         145.0514  142.8697  162.0966 C.3     1  UNL1        0.0666
     21 S         145.2139  141.5629  162.8149 S.3     1  UNL1       -0.0756
     22 C         142.5641  140.6659  161.1345 C.3     1  UNL1        0.1340
     23 N         142.7943  140.4471  162.6005 N.ar    1  UNL1       -0.2872
     24 C         144.0123  140.8594  163.3729 C.ar    1  UNL1        0.1933
     25 N         143.8178  140.4448  164.8013 N.ar    1  UNL1       -0.1221
     26 N         142.4796  139.7762  164.9117 N.ar    1  UNL1       -0.1266
     27 C         141.8470  139.7776  163.5515 C.ar    1  UNL1        0.1870
     28 C         140.5031  139.2093  163.2036 C.ar    1  UNL1        0.1472
     29 C         139.2642  139.9983  162.8992 C.ar    1  UNL1        0.0805
     30 S         138.1576  139.0290  162.6064 S.2     1  UNL1        0.0379
     31 N         138.7126  137.6409  162.7298 N.ar    1  UNL1       -0.1093
     32 N         140.1622  137.7523  163.0988 N.ar    1  UNL1       -0.1373
@<TRIPOS>BOND
     1    22    23    1
     2    23    24   ar
     3    24    21    1
     4    21    20    1
     5    20    19    1
     6    19    18    1
     7    18     1    1
     8     1     2    1
     9     2     3    1
    10     4     3    1
    11     4     5    1
    12     5     6    1
    13     6     8    1
    14     8     9   ar
    15     9    10   ar
    16    10    11   ar
    17    11    14    1
    18    14    15    1
    19    14    16    1
    20    14    17    1
    21    11    12   ar
    22    12    13   ar
    23     4     7    1
    24    24    25   ar
    25    25    26   ar
    26    26    27   ar
    27    27    28    1
    28    28    29   ar
    29    29    30   ar
    30    30    31   ar
    31    31    32   ar
    32    27    23   ar
    33    32    28   ar
    34     7     1    1
    35     6     4    1
    36    13     8   ar
@<TRIPOS>MOLECULE
*****
 32 36 0 0 0
SMALL
GASTEIGER

@<TRIPOS>ATOM
      1 N         138.0925  141.5001  163.3561 N.3     1  UNL1       -0.2726
      2 C         137.5946  142.7871  162.7683 C.3     1  UNL1        0.0721
      3 C         138.0984  143.9124  163.6227 C.3     1  UNL1        0.0190
      4 C         138.9077  143.3208  164.7385 C.3     1  UNL1        0.0201
      5 C         139.2576  144.6268  165.3880 C.3     1  UNL1        0.0061
      6 C         139.7555  143.3397  165.9758 C.3     1  UNL1        0.0237
      7 C         138.9040  141.8299  164.5737 C.3     1  UNL1        0.0724
      8 C         140.5325  142.6076  167.0295 C.ar    1  UNL1       -0.0225
      9 C         141.4712  141.5048  166.6387 C.ar    1  UNL1       -0.0043
     10 C         142.2481  140.7726  167.6924 C.ar    1  UNL1        0.0035
     11 C         142.0864  141.1433  169.1368 C.ar    1  UNL1        0.0714
     12 C         141.1477  142.2461  169.5276 C.ar    1  UNL1        0.0035
     13 C         140.3707  142.9782  168.4739 C.ar    1  UNL1       -0.0043
     14 C         142.8633  140.4111  170.1905 C.3     1  UNL1        0.4186
     15 F         143.6403  139.6789  171.2442 F       1  UNL1       -0.1659
     16 F         143.9564  141.4339  170.0951 F       1  UNL1       -0.1659
     17 F         141.7703  139.3883  170.2858 F       1  UNL1       -0.1659
     18 C         137.8257  140.1247  162.8203 C.3     1  UNL1        0.0730
     19 C         138.7784  139.0054  163.1196 C.3     1  UNL1        0.0294
     20 C         139.3254  138.1670  162.0025 C.3     1  UNL1        0.0666
     21 S         140.8074  138.0757  161.7898 S.3     1  UNL1       -0.0756
     22 C         140.9294  141.2667  161.1173 C.3     1  UNL1        0.1340
     23 N         141.7764  140.5445  162.1228 N.ar    1  UNL1       -0.2872
     24 C         141.7204  139.0778  162.4319 C.ar    1  UNL1        0.1933
     25 N         142.7376  138.7890  163.4958 N.ar    1  UNL1       -0.1221
     26 N         143.4223  140.0773  163.8443 N.ar    1  UNL1       -0.1266
     27 C         142.8283  141.1623  162.9957 C.ar    1  UNL1        0.1870
     28 C         143.2178  142.6107  163.0165 C.ar    1  UNL1        0.1472
     29 C         142.5562  143.6901  163.8210 C.ar    1  UNL1        0.0805
     30 S         143.2668  144.9805  163.5381 S.2     1  UNL1        0.0379
     31 N         144.3674  144.6986  162.5587 N.ar    1  UNL1       -0.1093
     32 N         144.3372  143.2340  162.2364 N.ar    1  UNL1       -0.1373
@<TRIPOS>BOND
     1    22    23    1
     2    23    24   ar
     3    24    21    1
     4    21    20    1
     5    20    19    1
     6    19    18    1
     7    18     1    1
     8     1     2    1
     9     2     3    1
    10     4     3    1
    11     4     5    1
    12     5     6    1
    13     6     8    1
    14     8     9   ar
    15     9    10   ar
    16    10    11   ar
    17    11    14    1
    18    14    15    1
    19    14    16    1
    20    14    17    1
    21    11    12   ar
    22    12    13   ar
    23     4     7    1
    24    24    25   ar
    25    25    26   ar
    26    26    27   ar
    27    27    28    1
    28    28    29   ar
    29    29    30   ar
    30    30    31   ar
    31    31    32   ar
    32    27    23   ar
    33    32    28   ar
    34     7     1    1
    35     6     4    1
    36    13     8   ar
@<TRIPOS>MOLECULE
*****
 32 36 0 0 0
SMALL
GASTEIGER

@<TRIPOS>ATOM
      1 N         143.6507  141.6939  162.6828 N.3     1  UNL1       -0.2726
      2 C         144.4423  140.5147  162.2003 C.3     1  UNL1        0.0721
      3 C         144.4800  139.4990  163.3034 C.3     1  UNL1        0.0190
      4 C         143.7117  140.0505  164.4677 C.3     1  UNL1        0.0201
      5 C         143.9191  138.8678  165.3667 C.3     1  UNL1        0.0061
      6 C         143.1275  140.0470  165.8493 C.3     1  UNL1        0.0237
      7 C         143.1992  141.4070  164.0842 C.3     1  UNL1        0.0724
      8 C         142.3332  140.7258  166.9255 C.ar    1  UNL1       -0.0225
      9 C         142.8458  141.9882  167.5529 C.ar    1  UNL1       -0.0043
     10 C         142.0515  142.6670  168.6292 C.ar    1  UNL1        0.0035
     11 C         140.7447  142.0834  169.0780 C.ar    1  UNL1        0.0714
     12 C         140.2321  140.8210  168.4506 C.ar    1  UNL1        0.0035
     13 C         141.0263  140.1422  167.3744 C.ar    1  UNL1       -0.0043
     14 C         139.9504  142.7623  170.1542 C.3     1  UNL1        0.4186
     15 F         139.1560  143.4411  171.2305 F       1  UNL1       -0.1659
     16 F         140.8749  143.9418  170.0925 F       1  UNL1       -0.1659
     17 F         139.0259  141.5827  170.2159 F       1  UNL1       -0.1659
     18 C         143.3615  142.9411  161.9013 C.3     1  UNL1        0.0730
     19 C         142.8091  144.1504  162.5960 C.3     1  UNL1        0.0294
     20 C         141.6769  144.9176  161.9799 C.3     1  UNL1        0.0666
     21 S         140.2597  144.5762  162.3332 S.3     1  UNL1       -0.0756
     22 C         139.8781  142.8454  165.0734 C.3     1  UNL1        0.1340
     23 N         139.6573  142.3451  163.6766 N.ar    1  UNL1       -0.2872
     24 C         139.8327  143.1407  162.4171 C.ar    1  UNL1        0.1933
     25 N         139.5061  142.2487  161.2562 N.ar    1  UNL1       -0.1221
     26 N         139.1289  140.9019  161.7982 N.ar    1  UNL1       -0.1266
     27 C         139.2223  140.9614  163.2941 C.ar    1  UNL1        0.1870
     28 C         138.9318  139.8351  164.2412 C.ar    1  UNL1        0.1472
     29 C         139.4796  138.4418  164.1486 C.ar    1  UNL1        0.0805
     30 S         138.9288  137.6499  165.2973 S.2     1  UNL1        0.0379
     31 N         138.0406  138.5538  166.0999 N.ar    1  UNL1       -0.1093
     32 N         138.0425  139.9043  165.4472 N.ar    1  UNL1       -0.1373
@<TRIPOS>BOND
     1    22    23    1
     2    23    24   ar
     3    24    21    1
     4    21    20    1
     5    20    19    1
     6    19    18    1
     7    18     1    1
     8     1     2    1
     9     2     3    1
    10     4     3    1
    11     4     5    1
    12     5     6    1
    13     6     8    1
    14     8     9   ar
    15     9    10   ar
    16    10    11   ar
    17    11    14    1
    18    14    15    1
    19    14    16    1
    20    14    17    1
    21    11    12   ar
    22    12    13   ar
    23     4     7    1
    24    24    25   ar
    25    25    26   ar
    26    26    27   ar
    27    27    28    1
    28    28    29   ar
    29    29    30   ar
    30    30    31   ar
    31    31    32   ar
    32    27    23   ar
    33    32    28   ar
    34     7     1    1
    35     6     4    1
    36    13     8   ar
