@<TRIPOS>MOLECULE
*****
 30 31 0 0 0
SMALL
GASTEIGER

@<TRIPOS>ATOM
      1 C         137.7231  141.8803  162.1607 C.3     1  UNL1        0.1697
      2 O         137.5587  143.1338  161.3535 O.3     1  UNL1       -0.3793
      3 H         137.7572  142.9472  160.4225 H       1  UNL1        0.2106
      4 C         137.4731  141.9024  163.6395 C.3     1  UNL1        0.2358
      5 O         137.8383  140.7147  164.4797 O.3     1  UNL1       -0.4728
      6 C         141.4348  140.8882  167.1787 C.ar    1  UNL1        0.0646
      7 C         140.2781  139.9990  167.5268 C.ar    1  UNL1        0.0190
      8 C         139.0793  139.9411  166.6271 C.ar    1  UNL1        0.0382
      9 C         139.0371  140.7725  165.3794 C.ar    1  UNL1        0.1388
     10 C         140.1939  141.6617  165.0313 C.ar    1  UNL1        0.0382
     11 C         141.3927  141.7196  165.9309 C.ar    1  UNL1        0.0190
     12 N         142.6337  140.9460  168.0784 N.pl3   1  UNL1       -0.2187
     13 H         143.5352  141.0322  167.6923 H       1  UNL1        0.1734
     14 C         142.2843  140.7993  171.0544 C.3     1  UNL1        0.1996
     15 S         142.4590  140.8727  169.5663 S.O2    1  UNL1        0.0558
     16 O         141.9045  142.2664  169.5700 O.2     1  UNL1       -0.1544
     17 O         143.0135  139.4790  169.5627 O.2     1  UNL1       -0.1544
     18 C         138.1374  140.6046  161.4890 C.3     1  UNL1        0.1021
     19 N         137.6227  139.2895  161.9944 N.3     1  UNL1       -0.2951
     20 H         136.8176  139.0469  161.4171 H       1  UNL1        0.1233
     21 C         138.5214  138.0886  162.0108 C.3     1  UNL1        0.0734
     22 C         139.2592  137.7210  163.2640 C.3     1  UNL1        0.0434
     23 C         140.6580  138.2163  163.4835 C.ar    1  UNL1       -0.0199
     24 C         141.3282  139.0581  162.4384 C.ar    1  UNL1       -0.0033
     25 C         142.7270  139.5533  162.6579 C.ar    1  UNL1        0.0119
     26 C         143.4555  139.2068  163.9225 C.ar    1  UNL1        0.0682
     27 CL        144.8543  139.7022  164.1419 Cl      1  UNL1       -0.0814
     28 C         142.7853  138.3651  164.9675 C.ar    1  UNL1        0.0679
     29 CL        143.5138  138.0186  166.2321 Cl      1  UNL1       -0.0814
     30 C         141.3866  137.8698  164.7480 C.ar    1  UNL1        0.0080
@<TRIPOS>BOND
     1    14    15    1
     2    15    16    2
     3    15    17    2
     4    15    12    1
     5    12     6    1
     6     6     7   ar
     7     7     8   ar
     8     8     9   ar
     9     9     5    1
    10     5     4    1
    11     4     1    1
    12     1     2    1
    13     1    18    1
    14    18    19    1
    15    19    21    1
    16    21    22    1
    17    22    23    1
    18    23    24   ar
    19    24    25   ar
    20    25    26   ar
    21    26    27    1
    22    26    28   ar
    23    28    29    1
    24    28    30   ar
    25     9    10   ar
    26    10    11   ar
    27    11     6   ar
    28    30    23   ar
    29    12    13    1
    30     2     3    1
    31    19    20    1
@<TRIPOS>MOLECULE
*****
 30 31 0 0 0
SMALL
GASTEIGER

@<TRIPOS>ATOM
      1 C         140.3508  145.0146  162.3703 C.3     1  UNL1        0.1697
      2 O         139.2900  145.8420  161.7069 O.3     1  UNL1       -0.3793
      3 H         139.6153  146.1577  160.8494 H       1  UNL1        0.2106
      4 C         140.0943  144.4058  163.7170 C.3     1  UNL1        0.2358
      5 O         139.3802  143.0909  163.8220 O.3     1  UNL1       -0.4728
      6 C         139.7699  140.6108  167.5566 C.ar    1  UNL1        0.0646
      7 C         139.0934  140.0411  166.3451 C.ar    1  UNL1        0.0190
      8 C         138.9635  140.8678  165.1002 C.ar    1  UNL1        0.0382
      9 C         139.5101  142.2642  165.0668 C.ar    1  UNL1        0.1388
     10 C         140.1866  142.8339  166.2783 C.ar    1  UNL1        0.0382
     11 C         140.3164  142.0072  167.5232 C.ar    1  UNL1        0.0190
     12 N         139.8997  139.7841  168.8014 N.pl3   1  UNL1       -0.2187
     13 H         139.6401  138.8345  168.7910 H       1  UNL1        0.1734
     14 C         140.9506  141.0243  171.3229 C.3     1  UNL1        0.1996
     15 S         140.4252  140.4041  170.0621 S.O2    1  UNL1        0.0558
     16 O         139.0527  140.9184  170.3812 O.2     1  UNL1       -0.1544
     17 O         141.7976  139.8899  169.7430 O.2     1  UNL1       -0.1544
     18 C         141.6681  144.7959  161.6869 C.3     1  UNL1        0.1021
     19 N         142.9424  145.1985  162.3683 N.3     1  UNL1       -0.2951
     20 H         142.6785  145.7576  163.1796 H       1  UNL1        0.1233
     21 C         143.8954  144.1486  162.8574 C.3     1  UNL1        0.0734
     22 C         143.6604  143.4794  164.1791 C.3     1  UNL1        0.0434
     23 C         143.1680  142.0632  164.2257 C.ar    1  UNL1       -0.0199
     24 C         142.4894  141.4653  163.0291 C.ar    1  UNL1       -0.0033
     25 C         141.9971  140.0492  163.0758 C.ar    1  UNL1        0.0119
     26 C         142.1834  139.2310  164.3191 C.ar    1  UNL1        0.0682
     27 CL        141.6910  137.8149  164.3657 Cl      1  UNL1       -0.0814
     28 C         142.8619  139.8289  165.5157 C.ar    1  UNL1        0.0679
     29 CL        143.0482  139.0107  166.7591 Cl      1  UNL1       -0.0814
     30 C         143.3542  141.2450  165.4691 C.ar    1  UNL1        0.0080
@<TRIPOS>BOND
     1    14    15    1
     2    15    16    2
     3    15    17    2
     4    15    12    1
     5    12     6    1
     6     6     7   ar
     7     7     8   ar
     8     8     9   ar
     9     9     5    1
    10     5     4    1
    11     4     1    1
    12     1     2    1
    13     1    18    1
    14    18    19    1
    15    19    21    1
    16    21    22    1
    17    22    23    1
    18    23    24   ar
    19    24    25   ar
    20    25    26   ar
    21    26    27    1
    22    26    28   ar
    23    28    29    1
    24    28    30   ar
    25     9    10   ar
    26    10    11   ar
    27    11     6   ar
    28    30    23   ar
    29    12    13    1
    30     2     3    1
    31    19    20    1
@<TRIPOS>MOLECULE
*****
 30 31 0 0 0
SMALL
GASTEIGER

@<TRIPOS>ATOM
      1 C         137.9502  143.2411  162.5442 C.3     1  UNL1        0.1697
      2 O         137.2776  144.5702  162.7210 O.3     1  UNL1       -0.3793
      3 H         137.7649  145.2475  162.2264 H       1  UNL1        0.2106
      4 C         137.3884  142.0214  163.2126 C.3     1  UNL1        0.2358
      5 O         138.2846  140.8624  163.5340 O.3     1  UNL1       -0.4728
      6 C         139.4845  140.0605  167.7963 C.ar    1  UNL1        0.0646
      7 C         138.5357  139.1328  167.0971 C.ar    1  UNL1        0.0190
      8 C         138.1357  139.4001  165.6763 C.ar    1  UNL1        0.0382
      9 C         138.6846  140.5951  164.9548 C.ar    1  UNL1        0.1388
     10 C         139.6335  141.5228  165.6540 C.ar    1  UNL1        0.0382
     11 C         140.0334  141.2555  167.0748 C.ar    1  UNL1        0.0190
     12 N         139.8845  139.7932  169.2171 N.pl3   1  UNL1       -0.2187
     13 H         139.8996  138.8701  169.5589 H       1  UNL1        0.1734
     14 C         140.6383  142.0717  171.0172 C.3     1  UNL1        0.1996
     15 S         140.2614  140.9324  170.1171 S.O2    1  UNL1        0.0558
     16 O         138.8096  141.2253  170.3544 O.2     1  UNL1       -0.1544
     17 O         141.7133  140.6395  169.8799 O.2     1  UNL1       -0.1544
     18 C         139.1847  143.1318  161.6991 C.3     1  UNL1        0.1021
     19 N         139.6225  144.2935  160.8572 N.3     1  UNL1       -0.2951
     20 H         138.7853  144.6625  160.4063 H       1  UNL1        0.1233
     21 C         140.3216  145.4587  161.4923 C.3     1  UNL1        0.0734
     22 C         140.8461  145.3460  162.8931 C.3     1  UNL1        0.0434
     23 C         142.0492  144.4965  163.1774 C.ar    1  UNL1       -0.0199
     24 C         143.1194  144.3401  162.1381 C.ar    1  UNL1       -0.0033
     25 C         144.3225  143.4906  162.4224 C.ar    1  UNL1        0.0119
     26 C         144.4554  142.7975  163.7460 C.ar    1  UNL1        0.0682
     27 CL        145.6586  141.9480  164.0303 Cl      1  UNL1       -0.0814
     28 C         143.3853  142.9539  164.7854 C.ar    1  UNL1        0.0679
     29 CL        143.5182  142.2608  166.1090 Cl      1  UNL1       -0.0814
     30 C         142.1822  143.8034  164.5010 C.ar    1  UNL1        0.0080
@<TRIPOS>BOND
     1    14    15    1
     2    15    16    2
     3    15    17    2
     4    15    12    1
     5    12     6    1
     6     6     7   ar
     7     7     8   ar
     8     8     9   ar
     9     9     5    1
    10     5     4    1
    11     4     1    1
    12     1     2    1
    13     1    18    1
    14    18    19    1
    15    19    21    1
    16    21    22    1
    17    22    23    1
    18    23    24   ar
    19    24    25   ar
    20    25    26   ar
    21    26    27    1
    22    26    28   ar
    23    28    29    1
    24    28    30   ar
    25     9    10   ar
    26    10    11   ar
    27    11     6   ar
    28    30    23   ar
    29    12    13    1
    30     2     3    1
    31    19    20    1
@<TRIPOS>MOLECULE
*****
 30 31 0 0 0
SMALL
GASTEIGER

@<TRIPOS>ATOM
      1 C         137.6681  141.0196  162.3487 C.3     1  UNL1        0.1697
      2 O         136.8967  140.1583  161.3932 O.3     1  UNL1       -0.3793
      3 H         136.8444  140.5990  160.5306 H       1  UNL1        0.2106
      4 C         137.8919  140.5606  163.7591 C.3     1  UNL1        0.2358
      5 O         138.7356  139.3501  164.0289 O.3     1  UNL1       -0.4728
      6 C         141.8393  139.4512  167.2858 C.ar    1  UNL1        0.0646
      7 C         140.4352  139.8934  167.5738 C.ar    1  UNL1        0.0190
      8 C         139.4007  139.8598  166.4882 C.ar    1  UNL1        0.0382
      9 C         139.7702  139.3838  165.1145 C.ar    1  UNL1        0.1388
     10 C         141.1742  138.9416  164.8265 C.ar    1  UNL1        0.0382
     11 C         142.2088  138.9753  165.9122 C.ar    1  UNL1        0.0190
     12 N         142.8738  139.4849  168.3714 N.pl3   1  UNL1       -0.2187
     13 H         143.7536  139.0677  168.2261 H       1  UNL1        0.1734
     14 C         142.2620  140.8236  170.9855 C.3     1  UNL1        0.1996
     15 S         142.5679  140.1542  169.6785 S.O2    1  UNL1        0.0558
     16 O         142.9994  141.4713  169.1050 O.2     1  UNL1       -0.1544
     17 O         142.1364  138.8371  170.2519 O.2     1  UNL1       -0.1544
     18 C         138.2157  142.3400  161.8939 C.3     1  UNL1        0.1021
     19 N         137.5028  143.6106  162.2508 N.3     1  UNL1       -0.2951
     20 H         136.7655  143.3595  162.9094 H       1  UNL1        0.1233
     21 C         138.2620  144.7496  162.8642 C.3     1  UNL1        0.0734
     22 C         138.8144  144.6213  164.2528 C.3     1  UNL1        0.0434
     23 C         140.2435  144.2139  164.4568 C.ar    1  UNL1       -0.0199
     24 C         140.5759  143.0834  165.3849 C.ar    1  UNL1       -0.0033
     25 C         142.0050  142.6760  165.5889 C.ar    1  UNL1        0.0119
     26 C         143.1017  143.3990  164.8647 C.ar    1  UNL1        0.0682
     27 CL        144.5309  142.9916  165.0687 Cl      1  UNL1       -0.0814
     28 C         142.7693  144.5295  163.9366 C.ar    1  UNL1        0.0679
     29 CL        143.8660  145.2526  163.2124 Cl      1  UNL1       -0.0814
     30 C         141.3402  144.9369  163.7326 C.ar    1  UNL1        0.0080
@<TRIPOS>BOND
     1    14    15    1
     2    15    16    2
     3    15    17    2
     4    15    12    1
     5    12     6    1
     6     6     7   ar
     7     7     8   ar
     8     8     9   ar
     9     9     5    1
    10     5     4    1
    11     4     1    1
    12     1     2    1
    13     1    18    1
    14    18    19    1
    15    19    21    1
    16    21    22    1
    17    22    23    1
    18    23    24   ar
    19    24    25   ar
    20    25    26   ar
    21    26    27    1
    22    26    28   ar
    23    28    29    1
    24    28    30   ar
    25     9    10   ar
    26    10    11   ar
    27    11     6   ar
    28    30    23   ar
    29    12    13    1
    30     2     3    1
    31    19    20    1
@<TRIPOS>MOLECULE
*****
 30 31 0 0 0
SMALL
GASTEIGER

@<TRIPOS>ATOM
      1 C         140.2120  145.4779  163.0044 C.3     1  UNL1        0.1697
      2 O         140.2671  146.6957  162.1304 O.3     1  UNL1       -0.3793
      3 H         139.3930  146.8536  161.7406 H       1  UNL1        0.2106
      4 C         141.4429  145.0175  163.7276 C.3     1  UNL1        0.2358
      5 O         141.8496  143.5747  163.6725 O.3     1  UNL1       -0.4728
      6 C         141.2244  140.9224  167.2536 C.ar    1  UNL1        0.0646
      7 C         142.2440  140.5546  166.2168 C.ar    1  UNL1        0.0190
      8 C         142.4524  141.4387  165.0231 C.ar    1  UNL1        0.0382
      9 C         141.6412  142.6906  164.8662 C.ar    1  UNL1        0.1388
     10 C         140.6216  143.0584  165.9031 C.ar    1  UNL1        0.0382
     11 C         140.4132  142.1743  167.0968 C.ar    1  UNL1        0.0190
     12 N         141.0160  140.0383  168.4473 N.pl3   1  UNL1       -0.2187
     13 H         141.6494  139.3087  168.6360 H       1  UNL1        0.1734
     14 C         138.6691  140.4937  170.2598 C.3     1  UNL1        0.1996
     15 S         139.8426  140.2660  169.3535 S.O2    1  UNL1        0.0558
     16 O         140.7177  141.0436  170.2913 O.2     1  UNL1       -0.1544
     17 O         138.9675  139.4884  168.4157 O.2     1  UNL1       -0.1544
     18 C         138.9261  144.7204  163.1553 C.3     1  UNL1        0.1021
     19 N         138.3878  143.9202  162.0064 N.3     1  UNL1       -0.2951
     20 H         139.1722  143.7406  161.3796 H       1  UNL1        0.1233
     21 C         137.7237  142.5991  162.2585 C.3     1  UNL1        0.0734
     22 C         137.8276  141.9529  163.6081 C.3     1  UNL1        0.0434
     23 C         138.6404  140.7041  163.7812 C.ar    1  UNL1       -0.0199
     24 C         138.4092  139.8173  164.9687 C.ar    1  UNL1       -0.0033
     25 C         139.2220  138.5685  165.1417 C.ar    1  UNL1        0.0119
     26 C         140.2659  138.2066  164.1272 C.ar    1  UNL1        0.0682
     27 CL        141.0787  136.9577  164.3003 Cl      1  UNL1       -0.0814
     28 C         140.4971  139.0934  162.9397 C.ar    1  UNL1        0.0679
     29 CL        141.5411  138.7314  161.9253 Cl      1  UNL1       -0.0814
     30 C         139.6843  140.3421  162.7667 C.ar    1  UNL1        0.0080
@<TRIPOS>BOND
     1    14    15    1
     2    15    16    2
     3    15    17    2
     4    15    12    1
     5    12     6    1
     6     6     7   ar
     7     7     8   ar
     8     8     9   ar
     9     9     5    1
    10     5     4    1
    11     4     1    1
    12     1     2    1
    13     1    18    1
    14    18    19    1
    15    19    21    1
    16    21    22    1
    17    22    23    1
    18    23    24   ar
    19    24    25   ar
    20    25    26   ar
    21    26    27    1
    22    26    28   ar
    23    28    29    1
    24    28    30   ar
    25     9    10   ar
    26    10    11   ar
    27    11     6   ar
    28    30    23   ar
    29    12    13    1
    30     2     3    1
    31    19    20    1
@<TRIPOS>MOLECULE
*****
 30 31 0 0 0
SMALL
GASTEIGER

@<TRIPOS>ATOM
      1 C         142.9342  140.9140  168.9189 C.3     1  UNL1        0.1697
      2 O         143.2488  140.9803  170.3840 O.3     1  UNL1       -0.3793
      3 H         143.1877  140.0918  170.7684 H       1  UNL1        0.2106
      4 C         142.9600  142.1632  168.0890 C.3     1  UNL1        0.2358
      5 O         143.4647  142.1154  166.6773 O.3     1  UNL1       -0.4728
      6 C         141.7477  144.8906  163.5788 C.ar    1  UNL1        0.0646
      7 C         140.8562  143.9150  164.2883 C.ar    1  UNL1        0.0190
      8 C         141.4285  142.9899  165.3211 C.ar    1  UNL1        0.0382
      9 C         142.8923  143.0405  165.6444 C.ar    1  UNL1        0.1388
     10 C         143.7838  144.0160  164.9350 C.ar    1  UNL1        0.0382
     11 C         143.2115  144.9411  163.9021 C.ar    1  UNL1        0.0190
     12 N         141.1753  145.8156  162.5460 N.pl3   1  UNL1       -0.2187
     13 H         141.1540  146.7858  162.7119 H       1  UNL1        0.1734
     14 C         140.0959  144.7094  159.9748 C.3     1  UNL1        0.1996
     15 S         140.6356  145.2625  161.2604 S.O2    1  UNL1        0.0558
     16 O         142.0235  144.8739  160.8449 O.2     1  UNL1       -0.1544
     17 O         139.2477  145.6511  161.6759 O.2     1  UNL1       -0.1544
     18 C         142.5936  139.5985  168.2837 C.3     1  UNL1        0.1021
     19 N         141.7201  139.5579  167.0649 N.3     1  UNL1       -0.2951
     20 H         141.6323  140.5186  166.7335 H       1  UNL1        0.1233
     21 C         142.1209  138.7269  165.8823 C.3     1  UNL1        0.0734
     22 C         143.5132  138.8263  165.3330 C.3     1  UNL1        0.0434
     23 C         143.8223  139.8139  164.2471 C.ar    1  UNL1       -0.0199
     24 C         145.1933  140.4143  164.1474 C.ar    1  UNL1       -0.0033
     25 C         145.5023  141.4018  163.0615 C.ar    1  UNL1        0.0119
     26 C         144.4404  141.7889  162.0753 C.ar    1  UNL1        0.0682
     27 CL        144.7496  142.7765  160.9893 Cl      1  UNL1       -0.0814
     28 C         143.0695  141.1885  162.1750 C.ar    1  UNL1        0.0679
     29 CL        142.0076  141.5756  161.1888 Cl      1  UNL1       -0.0814
     30 C         142.7605  140.2010  163.2609 C.ar    1  UNL1        0.0080
@<TRIPOS>BOND
     1    14    15    1
     2    15    16    2
     3    15    17    2
     4    15    12    1
     5    12     6    1
     6     6     7   ar
     7     7     8   ar
     8     8     9   ar
     9     9     5    1
    10     5     4    1
    11     4     1    1
    12     1     2    1
    13     1    18    1
    14    18    19    1
    15    19    21    1
    16    21    22    1
    17    22    23    1
    18    23    24   ar
    19    24    25   ar
    20    25    26   ar
    21    26    27    1
    22    26    28   ar
    23    28    29    1
    24    28    30   ar
    25     9    10   ar
    26    10    11   ar
    27    11     6   ar
    28    30    23   ar
    29    12    13    1
    30     2     3    1
    31    19    20    1
@<TRIPOS>MOLECULE
*****
 30 31 0 0 0
SMALL
GASTEIGER

@<TRIPOS>ATOM
      1 C         142.3828  144.4112  162.4062 C.3     1  UNL1        0.1697
      2 O         142.2508  145.0191  161.0413 O.3     1  UNL1       -0.3793
      3 H         141.9066  145.9224  161.1216 H       1  UNL1        0.2106
      4 C         142.8972  143.0103  162.5568 C.3     1  UNL1        0.2358
      5 O         143.8923  142.6882  163.6320 O.3     1  UNL1       -0.4728
      6 C         142.6456  140.2285  167.1880 C.ar    1  UNL1        0.0646
      7 C         142.8573  139.5695  165.8573 C.ar    1  UNL1        0.0190
      8 C         143.2729  140.3894  164.6720 C.ar    1  UNL1        0.0382
      9 C         143.4768  141.8683  164.8173 C.ar    1  UNL1        0.1388
     10 C         143.2651  142.5273  166.1480 C.ar    1  UNL1        0.0382
     11 C         142.8495  141.7074  167.3334 C.ar    1  UNL1        0.0190
     12 N         142.2301  139.4086  168.3734 N.pl3   1  UNL1       -0.2187
     13 H         142.2259  138.4258  168.3151 H       1  UNL1        0.1734
     14 C         141.4116  140.7635  170.9218 C.3     1  UNL1        0.1996
     15 S         141.8209  140.0860  169.6476 S.O2    1  UNL1        0.0558
     16 O         140.4211  140.2218  169.1259 O.2     1  UNL1       -0.1544
     17 O         143.2206  139.9503  170.1693 O.2     1  UNL1       -0.1544
     18 C         142.0003  145.2043  163.6207 C.3     1  UNL1        0.1021
     19 N         140.5632  145.5593  163.8627 N.3     1  UNL1       -0.2951
     20 H         140.2318  146.0343  163.0231 H       1  UNL1        0.1233
     21 C         139.5665  144.4820  164.1725 C.3     1  UNL1        0.0734
     22 C         139.8846  143.4399  165.2035 C.3     1  UNL1        0.0434
     23 C         139.6481  141.9896  164.9018 C.ar    1  UNL1       -0.0199
     24 C         139.9181  141.4560  163.5262 C.ar    1  UNL1       -0.0033
     25 C         139.6816  140.0059  163.2245 C.ar    1  UNL1        0.0119
     26 C         139.1751  139.0893  164.2985 C.ar    1  UNL1        0.0682
     27 CL        138.9386  137.6391  163.9968 Cl      1  UNL1       -0.0814
     28 C         138.9052  139.6229  165.6741 C.ar    1  UNL1        0.0679
     29 CL        138.3987  138.7064  166.7481 Cl      1  UNL1       -0.0814
     30 C         139.1416  141.0731  165.9757 C.ar    1  UNL1        0.0080
@<TRIPOS>BOND
     1    14    15    1
     2    15    16    2
     3    15    17    2
     4    15    12    1
     5    12     6    1
     6     6     7   ar
     7     7     8   ar
     8     8     9   ar
     9     9     5    1
    10     5     4    1
    11     4     1    1
    12     1     2    1
    13     1    18    1
    14    18    19    1
    15    19    21    1
    16    21    22    1
    17    22    23    1
    18    23    24   ar
    19    24    25   ar
    20    25    26   ar
    21    26    27    1
    22    26    28   ar
    23    28    29    1
    24    28    30   ar
    25     9    10   ar
    26    10    11   ar
    27    11     6   ar
    28    30    23   ar
    29    12    13    1
    30     2     3    1
    31    19    20    1
@<TRIPOS>MOLECULE
*****
 30 31 0 0 0
SMALL
GASTEIGER

@<TRIPOS>ATOM
      1 C         142.2912  144.4934  162.5366 C.3     1  UNL1        0.1697
      2 O         141.9809  145.2137  161.2580 O.3     1  UNL1       -0.3793
      3 H         142.8005  145.5686  160.8796 H       1  UNL1        0.2106
      4 C         141.1872  143.8497  163.3219 C.3     1  UNL1        0.2358
      5 O         141.1323  142.3565  163.4534 O.3     1  UNL1       -0.4728
      6 C         140.0033  140.4841  167.3865 C.ar    1  UNL1        0.0646
      7 C         141.0404  141.5669  167.3415 C.ar    1  UNL1        0.0190
      8 C         141.4167  142.1910  166.0305 C.ar    1  UNL1        0.0382
      9 C         140.7560  141.7324  164.7644 C.ar    1  UNL1        0.1388
     10 C         139.7188  140.6497  164.8094 C.ar    1  UNL1        0.0382
     11 C         139.3425  140.0255  166.1204 C.ar    1  UNL1        0.0190
     12 N         139.6269  139.8600  168.6975 N.pl3   1  UNL1       -0.2187
     13 H         138.9781  139.1200  168.7222 H       1  UNL1        0.1734
     14 C         140.8514  140.8667  171.2445 C.3     1  UNL1        0.1996
     15 S         140.2392  140.3634  169.9710 S.O2    1  UNL1        0.0558
     16 O         141.3950  139.4255  169.7860 O.2     1  UNL1       -0.1544
     17 O         139.0833  141.3013  170.1559 O.2     1  UNL1       -0.1544
     18 C         143.7058  144.4168  163.0299 C.3     1  UNL1        0.1021
     19 N         144.7726  143.8224  162.1590 N.3     1  UNL1       -0.2951
     20 H         145.6680  144.0633  162.5841 H       1  UNL1        0.1233
     21 C         144.7972  142.3441  161.9063 C.3     1  UNL1        0.0734
     22 C         145.1533  141.3994  163.0157 C.3     1  UNL1        0.0434
     23 C         144.1846  140.3324  163.4321 C.ar    1  UNL1       -0.0199
     24 C         144.0936  139.9227  164.8722 C.ar    1  UNL1       -0.0033
     25 C         143.1249  138.8558  165.2886 C.ar    1  UNL1        0.0119
     26 C         142.2474  138.1986  164.2649 C.ar    1  UNL1        0.0682
     27 CL        141.2787  137.1316  164.6813 Cl      1  UNL1       -0.0814
     28 C         142.3385  138.6082  162.8248 C.ar    1  UNL1        0.0679
     29 CL        141.4609  137.9510  161.8011 Cl      1  UNL1       -0.0814
     30 C         143.3071  139.6751  162.4084 C.ar    1  UNL1        0.0080
@<TRIPOS>BOND
     1    14    15    1
     2    15    16    2
     3    15    17    2
     4    15    12    1
     5    12     6    1
     6     6     7   ar
     7     7     8   ar
     8     8     9   ar
     9     9     5    1
    10     5     4    1
    11     4     1    1
    12     1     2    1
    13     1    18    1
    14    18    19    1
    15    19    21    1
    16    21    22    1
    17    22    23    1
    18    23    24   ar
    19    24    25   ar
    20    25    26   ar
    21    26    27    1
    22    26    28   ar
    23    28    29    1
    24    28    30   ar
    25     9    10   ar
    26    10    11   ar
    27    11     6   ar
    28    30    23   ar
    29    12    13    1
    30     2     3    1
    31    19    20    1
@<TRIPOS>MOLECULE
*****
 30 31 0 0 0
SMALL
GASTEIGER

@<TRIPOS>ATOM
      1 C         141.0876  142.2408  169.6141 C.3     1  UNL1        0.1697
      2 O         140.5292  143.6290  169.7189 O.3     1  UNL1       -0.3793
      3 H         139.6916  143.6046  170.2075 H       1  UNL1        0.2106
      4 C         142.3856  142.0064  168.8998 C.3     1  UNL1        0.2358
      5 O         142.7088  140.6452  168.3589 O.3     1  UNL1       -0.4728
      6 C         142.0948  139.7560  163.9905 C.ar    1  UNL1        0.0646
      7 C         142.6863  138.7134  164.8922 C.ar    1  UNL1        0.0190
      8 C         142.8910  139.0098  166.3483 C.ar    1  UNL1        0.0382
      9 C         142.5041  140.3488  166.9027 C.ar    1  UNL1        0.1388
     10 C         141.9125  141.3914  166.0011 C.ar    1  UNL1        0.0382
     11 C         141.7079  141.0950  164.5450 C.ar    1  UNL1        0.0190
     12 N         141.8901  139.4596  162.5344 N.pl3   1  UNL1       -0.2187
     13 H         141.1329  139.8630  162.0516 H       1  UNL1        0.1734
     14 C         143.7883  137.6374  161.0933 C.3     1  UNL1        0.1996
     15 S         142.8391  138.5485  161.8139 S.O2    1  UNL1        0.0558
     16 O         143.8763  139.6321  161.8098 O.2     1  UNL1       -0.1544
     17 O         141.8020  137.4649  161.8180 O.2     1  UNL1       -0.1544
     18 C         140.3479  141.0869  170.2237 C.3     1  UNL1        0.1021
     19 N         139.9277  139.9291  169.3677 N.3     1  UNL1       -0.2951
     20 H         139.2949  139.3609  169.9308 H       1  UNL1        0.1233
     21 C         139.2389  140.1756  168.0582 C.3     1  UNL1        0.0734
     22 C         138.5350  139.0514  167.3577 C.3     1  UNL1        0.0434
     23 C         138.5142  138.9977  165.8587 C.ar    1  UNL1       -0.0199
     24 C         138.9387  137.7475  165.1470 C.ar    1  UNL1       -0.0033
     25 C         138.9178  137.6939  163.6482 C.ar    1  UNL1        0.0119
     26 C         138.4724  138.8906  162.8610 C.ar    1  UNL1        0.0682
     27 CL        138.4515  138.8369  161.3621 Cl      1  UNL1       -0.0814
     28 C         138.0478  140.1408  163.5727 C.ar    1  UNL1        0.0679
     29 CL        137.6024  141.3374  162.7856 Cl      1  UNL1       -0.0814
     30 C         138.0687  140.1944  165.0716 C.ar    1  UNL1        0.0080
@<TRIPOS>BOND
     1    14    15    1
     2    15    16    2
     3    15    17    2
     4    15    12    1
     5    12     6    1
     6     6     7   ar
     7     7     8   ar
     8     8     9   ar
     9     9     5    1
    10     5     4    1
    11     4     1    1
    12     1     2    1
    13     1    18    1
    14    18    19    1
    15    19    21    1
    16    21    22    1
    17    22    23    1
    18    23    24   ar
    19    24    25   ar
    20    25    26   ar
    21    26    27    1
    22    26    28   ar
    23    28    29    1
    24    28    30   ar
    25     9    10   ar
    26    10    11   ar
    27    11     6   ar
    28    30    23   ar
    29    12    13    1
    30     2     3    1
    31    19    20    1
