@<TRIPOS>MOLECULE
*****
 36 41 0 0 0
SMALL
GASTEIGER

@<TRIPOS>ATOM
      1 C         139.3821  146.9099  156.3458 C.ar    1  UNL1        0.1028
      2 C         139.3918  146.8042  154.8496 C.ar    1  UNL1        0.0131
      3 C         139.9599  145.5840  154.1876 C.ar    1  UNL1       -0.0015
      4 C         140.5965  144.2904  154.7304 C.ar    1  UNL1        0.0035
      5 C         140.1660  145.2477  155.8019 C.ar    1  UNL1        0.0358
      6 C         139.9407  145.7954  157.1800 C.ar    1  UNL1        0.1545
      7 O         139.9512  145.8596  158.6787 O.3     1  UNL1       -0.4528
      8 C         140.1959  145.4316  160.0952 C.ar    1  UNL1        0.1454
      9 C         139.9135  146.1072  161.6316 C.ar    1  UNL1        0.0375
     10 C         140.2116  145.5652  162.9981 C.ar    1  UNL1        0.0032
     11 C         140.8615  144.2215  163.1467 C.ar    1  UNL1        0.0014
     12 C         141.1428  143.7154  164.5304 C.ar    1  UNL1        0.0001
     13 C         141.7915  142.3765  164.7218 C.ar    1  UNL1        0.0013
     14 C         142.1588  141.5438  163.5294 C.ar    1  UNL1        0.0149
     15 C         141.8775  142.0499  162.1457 C.ar    1  UNL1        0.0539
     16 C         141.2288  143.3888  161.9544 C.ar    1  UNL1        0.0167
     17 C         140.6418  144.5691  161.2386 C.ar    1  UNL1        0.0387
     18 N         142.5003  140.7334  161.7869 N.am    1  UNL1       -0.2572
     19 C         143.0972  139.5295  162.4534 C.3     1  UNL1        0.1005
     20 C         143.5277  138.5722  161.3819 C.3     1  UNL1        0.0509
     21 C         143.3467  138.8514  159.6803 C.3     1  UNL1        0.1508
     22 N         143.4559  138.5402  158.2170 N.am    1  UNL1       -0.2980
     23 C         143.3262  138.7252  156.7341 C.2     1  UNL1        0.2288
     24 O         143.9290  137.4426  156.2425 O.2     1  UNL1       -0.2747
     25 C         142.9748  139.3816  155.4320 C.3     1  UNL1        0.1303
     26 C         142.4494  140.4207  154.4863 C.ar    1  UNL1        0.0670
     27 C         142.8034  139.6144  153.2719 C.ar    1  UNL1        0.1138
     28 N         142.3937  140.3976  152.0600 N.ar    1  UNL1       -0.2227
     29 C         141.7864  141.6879  152.5254 C.ar    1  UNL1        0.1786
     30 N         141.8209  141.7021  154.0249 N.ar    1  UNL1       -0.3078
     31 C         141.1741  143.0528  154.1101 C.3     1  UNL1        0.1341
     32 C         143.0131  139.6169  160.9263 C.2     1  UNL1        0.2473
     33 O         143.2092  139.2477  161.6050 O.2     1  UNL1       -0.2728
     34 H         143.8829  137.6537  158.2521 H       1  UNL1        0.1498
     35 N         138.2458  149.3504  157.6698 N.1     1  UNL1       -0.1907
     36 C         138.8140  148.1301  157.0078 C.1     1  UNL1        0.1035
@<TRIPOS>BOND
     1    35    36    3
     2    36     1    1
     3     1     2   ar
     4     2     3   ar
     5     3     4   ar
     6     4     5   ar
     7     5     6   ar
     8     6     7    1
     9     7     8    1
    10     8     9   ar
    11     9    10   ar
    12    10    11   ar
    13    11    12   ar
    14    12    13   ar
    15    13    14   ar
    16    14    15   ar
    17    15    16   ar
    18    16    17   ar
    19    15    18    1
    20    18    19    1
    21    19    20    1
    22    21    20    1
    23    21    22    1
    24    22    23   am
    25    23    24    2
    26    23    25    1
    27    25    26    1
    28    26    27   ar
    29    27    28   ar
    30    28    29   ar
    31    29    30   ar
    32    30    31    1
    33    21    32    1
    34    32    33    2
    35     6     1   ar
    36    17     8   ar
    37    32    18   am
    38    31     4    1
    39    16    11   ar
    40    30    26   ar
    41    22    34    1
@<TRIPOS>MOLECULE
*****
 36 41 0 0 0
SMALL
GASTEIGER

@<TRIPOS>ATOM
      1 C         142.5631  136.9628  156.6017 C.ar    1  UNL1        0.1028
      2 C         142.3721  137.0763  155.1182 C.ar    1  UNL1        0.0131
      3 C         141.9068  138.3701  154.5187 C.ar    1  UNL1       -0.0015
      4 C         141.5436  139.7405  155.1214 C.ar    1  UNL1        0.0035
      5 C         141.9665  138.7250  156.1411 C.ar    1  UNL1        0.0358
      6 C         142.2885  138.1432  157.4856 C.ar    1  UNL1        0.1545
      7 O         142.4662  138.0738  158.9735 O.3     1  UNL1       -0.4528
      8 C         142.4755  138.5261  160.4035 C.ar    1  UNL1        0.1454
      9 C         142.8556  137.8086  161.8993 C.ar    1  UNL1        0.0375
     10 C         142.8226  138.3818  163.2851 C.ar    1  UNL1        0.0032
     11 C         142.4019  139.8057  163.4980 C.ar    1  UNL1        0.0014
     12 C         142.3824  140.3408  164.8992 C.ar    1  UNL1        0.0001
     13 C         141.9678  141.7596  165.1545 C.ar    1  UNL1        0.0013
     14 C         141.5727  142.6432  164.0085 C.ar    1  UNL1        0.0149
     15 C         141.5922  142.1081  162.6074 C.ar    1  UNL1        0.0539
     16 C         142.0069  140.6893  162.3521 C.ar    1  UNL1        0.0167
     17 C         142.3151  139.4391  161.5829 C.ar    1  UNL1        0.0387
     18 N         141.1273  143.5038  162.3142 N.am    1  UNL1       -0.2572
     19 C         140.8062  144.7790  163.0356 C.3     1  UNL1        0.1005
     20 C         140.3833  145.7946  162.0159 C.3     1  UNL1        0.0509
     21 C         140.2959  145.5003  160.3095 C.3     1  UNL1        0.1508
     22 N         140.0417  145.8315  158.8688 N.am    1  UNL1       -0.2980
     23 C         139.9466  145.6368  157.3845 C.2     1  UNL1        0.2288
     24 O         139.4788  146.9965  156.9575 O.2     1  UNL1       -0.2747
     25 C         140.0235  144.9423  156.0572 C.3     1  UNL1        0.1303
     26 C         140.2618  143.8420  155.0660 C.ar    1  UNL1        0.0670
     27 C         139.8730  144.6975  153.8969 C.ar    1  UNL1        0.1138
     28 N         140.0005  143.8686  152.6532 N.ar    1  UNL1       -0.2227
     29 C         140.4680  142.5008  153.0537 C.ar    1  UNL1        0.1786
     30 N         140.6295  142.4843  154.5449 N.ar    1  UNL1       -0.3078
     31 C         141.0770  141.0527  154.5642 C.3     1  UNL1        0.1341
     32 C         140.6748  144.6878  161.5121 C.2     1  UNL1        0.2473
     33 O         140.6259  145.0785  162.2052 O.2     1  UNL1       -0.2728
     34 H         139.7576  146.7709  158.9466 H       1  UNL1        0.1498
     35 N         143.4938  134.3751  157.8006 N.1     1  UNL1       -0.1907
     36 C         143.0285  135.6690  157.2012 C.1     1  UNL1        0.1035
@<TRIPOS>BOND
     1    35    36    3
     2    36     1    1
     3     1     2   ar
     4     2     3   ar
     5     3     4   ar
     6     4     5   ar
     7     5     6   ar
     8     6     7    1
     9     7     8    1
    10     8     9   ar
    11     9    10   ar
    12    10    11   ar
    13    11    12   ar
    14    12    13   ar
    15    13    14   ar
    16    14    15   ar
    17    15    16   ar
    18    16    17   ar
    19    15    18    1
    20    18    19    1
    21    19    20    1
    22    21    20    1
    23    21    22    1
    24    22    23   am
    25    23    24    2
    26    23    25    1
    27    25    26    1
    28    26    27   ar
    29    27    28   ar
    30    28    29   ar
    31    29    30   ar
    32    30    31    1
    33    21    32    1
    34    32    33    2
    35     6     1   ar
    36    17     8   ar
    37    32    18   am
    38    31     4    1
    39    16    11   ar
    40    30    26   ar
    41    22    34    1
@<TRIPOS>MOLECULE
*****
 36 41 0 0 0
SMALL
GASTEIGER

@<TRIPOS>ATOM
      1 C         142.6091  137.8197  157.5454 C.ar    1  UNL1        0.1028
      2 C         142.8140  138.3737  156.1665 C.ar    1  UNL1        0.0131
      3 C         142.4936  139.8108  155.8804 C.ar    1  UNL1       -0.0015
      4 C         141.9526  140.9630  156.7482 C.ar    1  UNL1        0.0035
      5 C         142.1147  139.6707  157.4923 C.ar    1  UNL1        0.0358
      6 C         142.0837  138.7030  158.6380 C.ar    1  UNL1        0.1545
      7 O         141.8638  138.1906  160.0305 O.3     1  UNL1       -0.4528
      8 C         141.4848  138.2027  161.4817 C.ar    1  UNL1        0.1454
      9 C         141.4730  137.0579  162.7410 C.ar    1  UNL1        0.0375
     10 C         141.0621  137.2006  164.1765 C.ar    1  UNL1        0.0032
     11 C         140.5673  138.5214  164.6872 C.ar    1  UNL1        0.0014
     12 C         140.1662  138.6226  166.1291 C.ar    1  UNL1        0.0001
     13 C         139.6662  139.9257  166.6787 C.ar    1  UNL1        0.0013
     14 C         139.5673  141.1274  165.7865 C.ar    1  UNL1        0.0149
     15 C         139.9684  141.0262  164.3447 C.ar    1  UNL1        0.0539
     16 C         140.4684  139.7231  163.7951 C.ar    1  UNL1        0.0167
     17 C         140.9977  138.7376  162.7957 C.ar    1  UNL1        0.0387
     18 N         139.5652  142.4707  164.3704 N.am    1  UNL1       -0.2572
     19 C         139.0356  143.4948  165.3299 C.3     1  UNL1        0.1005
     20 C         138.8735  144.7871  164.5858 C.3     1  UNL1        0.0509
     21 C         139.2466  145.0112  162.9074 C.3     1  UNL1        0.1508
     22 N         139.3742  145.7641  161.6164 N.am    1  UNL1       -0.2980
     23 C         139.6788  146.0186  160.1699 C.2     1  UNL1        0.2288
     24 O         139.3090  147.4683  160.0612 O.2     1  UNL1       -0.2747
     25 C         140.1194  145.7404  158.7633 C.3     1  UNL1        0.1303
     26 C         140.6364  144.9670  157.5866 C.ar    1  UNL1        0.0670
     27 C         140.5503  146.1484  156.6664 C.ar    1  UNL1        0.1138
     28 N         141.0207  145.7144  155.3097 N.ar    1  UNL1       -0.2227
     29 C         141.3975  144.2648  155.3915 C.ar    1  UNL1        0.1786
     30 N         141.1599  143.8029  156.7987 N.ar    1  UNL1       -0.3078
     31 C         141.6194  142.4053  156.5061 C.3     1  UNL1        0.1341
     32 C         139.3132  143.8617  163.8688 C.2     1  UNL1        0.2473
     33 O         139.0741  144.0342  164.6094 O.2     1  UNL1       -0.2728
     34 H         139.0580  146.6541  161.8940 H       1  UNL1        0.1498
     35 N         143.2500  134.9454  158.1177 N.1     1  UNL1       -0.1907
     36 C         142.9295  136.3826  157.8315 C.1     1  UNL1        0.1035
@<TRIPOS>BOND
     1    35    36    3
     2    36     1    1
     3     1     2   ar
     4     2     3   ar
     5     3     4   ar
     6     4     5   ar
     7     5     6   ar
     8     6     7    1
     9     7     8    1
    10     8     9   ar
    11     9    10   ar
    12    10    11   ar
    13    11    12   ar
    14    12    13   ar
    15    13    14   ar
    16    14    15   ar
    17    15    16   ar
    18    16    17   ar
    19    15    18    1
    20    18    19    1
    21    19    20    1
    22    21    20    1
    23    21    22    1
    24    22    23   am
    25    23    24    2
    26    23    25    1
    27    25    26    1
    28    26    27   ar
    29    27    28   ar
    30    28    29   ar
    31    29    30   ar
    32    30    31    1
    33    21    32    1
    34    32    33    2
    35     6     1   ar
    36    17     8   ar
    37    32    18   am
    38    31     4    1
    39    16    11   ar
    40    30    26   ar
    41    22    34    1
@<TRIPOS>MOLECULE
*****
 36 41 0 0 0
SMALL
GASTEIGER

@<TRIPOS>ATOM
      1 C         140.4071  144.9651  155.7890 C.ar    1  UNL1        0.1028
      2 C         140.6780  144.3714  154.4383 C.ar    1  UNL1        0.0131
      3 C         141.1587  142.9551  154.3243 C.ar    1  UNL1       -0.0015
      4 C         141.4699  141.8610  155.3632 C.ar    1  UNL1        0.0035
      5 C         141.0049  143.1528  155.9672 C.ar    1  UNL1        0.0358
      6 C         140.6169  144.1424  157.0256 C.ar    1  UNL1        0.1545
      7 O         140.3584  144.6959  158.3956 O.3     1  UNL1       -0.4528
      8 C         140.2643  144.7388  159.8919 C.ar    1  UNL1        0.1454
      9 C         139.8118  145.9058  161.0451 C.ar    1  UNL1        0.0375
     10 C         139.7607  145.8202  162.5417 C.ar    1  UNL1        0.0032
     11 C         140.1502  144.5478  163.2339 C.ar    1  UNL1        0.0014
     12 C         140.0853  144.5031  164.7319 C.ar    1  UNL1        0.0001
     13 C         140.4665  143.2494  165.4620 C.ar    1  UNL1        0.0013
     14 C         140.9125  142.0404  164.6940 C.ar    1  UNL1        0.0149
     15 C         140.9774  142.0852  163.1962 C.ar    1  UNL1        0.0539
     16 C         140.5962  143.3389  162.4661 C.ar    1  UNL1        0.0167
     17 C         140.3473  144.2651  161.3127 C.ar    1  UNL1        0.0387
     18 N         141.4394  140.6734  163.4044 N.am    1  UNL1       -0.2572
     19 C         141.7033  139.7079  164.5215 C.3     1  UNL1        0.1005
     20 C         142.1684  138.4161  163.9176 C.3     1  UNL1        0.0509
     21 C         142.3536  138.1337  162.2169 C.3     1  UNL1        0.1508
     22 N         142.6825  137.3488  160.9818 N.am    1  UNL1       -0.2980
     23 C         142.8619  137.0453  159.5237 C.2     1  UNL1        0.2288
     24 O         143.3345  135.6235  159.5942 O.2     1  UNL1       -0.2747
     25 C         142.8675  137.2645  158.0399 C.3     1  UNL1        0.1303
     26 C         142.6987  137.9766  156.7305 C.ar    1  UNL1        0.0670
     27 C         143.1400  136.7865  155.9312 C.ar    1  UNL1        0.1138
     28 N         143.0923  137.1599  154.4792 N.ar    1  UNL1       -0.2227
     29 C         142.6215  138.5807  154.3811 C.ar    1  UNL1        0.1786
     30 N         142.3782  139.0854  155.7725 N.ar    1  UNL1       -0.3078
     31 C         141.9493  140.4413  155.2952 C.3     1  UNL1        0.1341
     32 C         141.9197  139.2941  163.0626 C.2     1  UNL1        0.2473
     33 O         141.9251  139.1532  163.8472 O.2     1  UNL1       -0.2728
     34 H         142.9494  136.4888  161.3797 H       1  UNL1        0.1498
     35 N         139.4458  147.7977  156.0170 N.1     1  UNL1       -0.1907
     36 C         139.9265  146.3814  155.9030 C.1     1  UNL1        0.1035
@<TRIPOS>BOND
     1    35    36    3
     2    36     1    1
     3     1     2   ar
     4     2     3   ar
     5     3     4   ar
     6     4     5   ar
     7     5     6   ar
     8     6     7    1
     9     7     8    1
    10     8     9   ar
    11     9    10   ar
    12    10    11   ar
    13    11    12   ar
    14    12    13   ar
    15    13    14   ar
    16    14    15   ar
    17    15    16   ar
    18    16    17   ar
    19    15    18    1
    20    18    19    1
    21    19    20    1
    22    21    20    1
    23    21    22    1
    24    22    23   am
    25    23    24    2
    26    23    25    1
    27    25    26    1
    28    26    27   ar
    29    27    28   ar
    30    28    29   ar
    31    29    30   ar
    32    30    31    1
    33    21    32    1
    34    32    33    2
    35     6     1   ar
    36    17     8   ar
    37    32    18   am
    38    31     4    1
    39    16    11   ar
    40    30    26   ar
    41    22    34    1
@<TRIPOS>MOLECULE
*****
 36 41 0 0 0
SMALL
GASTEIGER

@<TRIPOS>ATOM
      1 C         139.0341  145.4845  155.7215 C.ar    1  UNL1        0.1028
      2 C         138.8354  145.0409  154.3024 C.ar    1  UNL1        0.0131
      3 C         139.2151  143.6492  153.8914 C.ar    1  UNL1       -0.0015
      4 C         139.8180  142.4532  154.6525 C.ar    1  UNL1        0.0035
      5 C         139.6090  143.6689  155.5058 C.ar    1  UNL1        0.0358
      6 C         139.6125  144.5362  156.7296 C.ar    1  UNL1        0.1545
      7 O         139.8282  144.9379  158.1586 O.3     1  UNL1       -0.4528
      8 C         140.2269  144.8198  159.5998 C.ar    1  UNL1        0.1454
      9 C         140.2049  145.8529  160.9521 C.ar    1  UNL1        0.0375
     10 C         140.6409  145.6074  162.3662 C.ar    1  UNL1        0.0032
     11 C         141.2004  144.2718  162.7574 C.ar    1  UNL1        0.0014
     12 C         141.6248  144.0667  164.1814 C.ar    1  UNL1        0.0001
     13 C         142.1893  142.7456  164.6129 C.ar    1  UNL1        0.0013
     14 C         142.3292  141.6296  163.6203 C.ar    1  UNL1        0.0149
     15 C         141.9047  141.8347  162.1964 C.ar    1  UNL1        0.0539
     16 C         141.3403  143.1559  161.7649 C.ar    1  UNL1        0.0167
     17 C         140.7546  144.1978  160.8586 C.ar    1  UNL1        0.0387
     18 N         142.3716  140.4129  162.0947 N.am    1  UNL1       -0.2572
     19 C         142.9587  139.3360  162.9581 C.3     1  UNL1        0.1005
     20 C         143.1678  138.1202  162.1048 C.3     1  UNL1        0.0509
     21 C         142.7825  138.0228  160.4171 C.3     1  UNL1        0.1508
     22 N         142.6710  137.3773  159.0677 N.am    1  UNL1       -0.2980
     23 C         142.3586  137.2330  157.6077 C.2     1  UNL1        0.2288
     24 O         142.7906  135.8160  157.3721 O.2     1  UNL1       -0.2747
     25 C         141.8873  137.6096  156.2343 C.3     1  UNL1        0.1303
     26 C         141.3210  138.4559  155.1330 C.ar    1  UNL1        0.0670
     27 C         141.4468  137.3620  154.1144 C.ar    1  UNL1        0.1138
     28 N         140.9396  137.8879  152.8044 N.ar    1  UNL1       -0.2227
     29 C         140.5003  139.3069  153.0134 C.ar    1  UNL1        0.1786
     30 N         140.7360  139.6579  154.4525 N.ar    1  UNL1       -0.3078
     31 C         140.2114  141.0531  154.2848 C.3     1  UNL1        0.1341
     32 C         142.6781  139.0824  161.4737 C.2     1  UNL1        0.2473
     33 O         142.9345  138.8585  162.1945 O.2     1  UNL1       -0.2728
     34 H         143.0299  136.4821  159.2652 H       1  UNL1        0.1498
     35 N         138.2746  148.2679  156.5434 N.1     1  UNL1       -0.1907
     36 C         138.6543  146.8762  156.1324 C.1     1  UNL1        0.1035
@<TRIPOS>BOND
     1    35    36    3
     2    36     1    1
     3     1     2   ar
     4     2     3   ar
     5     3     4   ar
     6     4     5   ar
     7     5     6   ar
     8     6     7    1
     9     7     8    1
    10     8     9   ar
    11     9    10   ar
    12    10    11   ar
    13    11    12   ar
    14    12    13   ar
    15    13    14   ar
    16    14    15   ar
    17    15    16   ar
    18    16    17   ar
    19    15    18    1
    20    18    19    1
    21    19    20    1
    22    21    20    1
    23    21    22    1
    24    22    23   am
    25    23    24    2
    26    23    25    1
    27    25    26    1
    28    26    27   ar
    29    27    28   ar
    30    28    29   ar
    31    29    30   ar
    32    30    31    1
    33    21    32    1
    34    32    33    2
    35     6     1   ar
    36    17     8   ar
    37    32    18   am
    38    31     4    1
    39    16    11   ar
    40    30    26   ar
    41    22    34    1
@<TRIPOS>MOLECULE
*****
 36 41 0 0 0
SMALL
GASTEIGER

@<TRIPOS>ATOM
      1 C         143.5415  140.6256  161.2464 C.ar    1  UNL1        0.1028
      2 C         144.0345  139.2269  161.4718 C.ar    1  UNL1        0.0131
      3 C         143.7518  138.1594  160.4567 C.ar    1  UNL1       -0.0015
      4 C         143.0045  138.1574  159.1096 C.ar    1  UNL1        0.0035
      5 C         143.0277  139.4962  159.7857 C.ar    1  UNL1        0.0358
      6 C         142.7658  140.9566  160.0059 C.ar    1  UNL1        0.1545
      7 O         142.2541  142.3414  159.7405 O.3     1  UNL1       -0.4528
      8 C         141.5620  143.4636  159.0253 C.ar    1  UNL1        0.1454
      9 C         141.2977  145.1166  159.3326 C.ar    1  UNL1        0.0375
     10 C         140.5749  146.1497  158.5201 C.ar    1  UNL1        0.0032
     11 C         139.9480  145.7707  157.2112 C.ar    1  UNL1        0.0014
     12 C         139.2343  146.8332  156.4290 C.ar    1  UNL1        0.0001
     13 C         138.5940  146.4948  155.1154 C.ar    1  UNL1        0.0013
     14 C         138.6675  145.0939  154.5840 C.ar    1  UNL1        0.0149
     15 C         139.3812  144.0315  155.3662 C.ar    1  UNL1        0.0539
     16 C         140.0214  144.3699  156.6798 C.ar    1  UNL1        0.0167
     17 C         140.7826  144.1716  157.9570 C.ar    1  UNL1        0.0387
     18 N         138.9483  143.2023  154.1936 N.am    1  UNL1       -0.2572
     19 C         138.1948  143.3469  152.9047 C.3     1  UNL1        0.1005
     20 C         138.1716  142.0081  152.2287 C.3     1  UNL1        0.0509
     21 C         138.9028  140.5703  152.8645 C.3     1  UNL1        0.1508
     22 N         139.2963  139.1230  152.8875 N.am    1  UNL1       -0.2980
     23 C         139.9086  137.8477  153.3862 C.2     1  UNL1        0.2288
     24 O         139.5381  136.9109  152.2748 O.2     1  UNL1       -0.2747
     25 C         140.6571  136.9168  154.2934 C.3     1  UNL1        0.1303
     26 C         141.4408  136.4558  155.4865 C.ar    1  UNL1        0.0670
     27 C         141.5334  135.0451  154.9851 C.ar    1  UNL1        0.1138
     28 N         142.3036  134.2446  155.9930 N.ar    1  UNL1       -0.2227
     29 C         142.6869  135.1605  157.1174 C.ar    1  UNL1        0.1786
     30 N         142.1536  136.5271  156.8044 N.ar    1  UNL1       -0.3078
     31 C         142.6995  137.1210  158.0690 C.3     1  UNL1        0.1341
     32 C         138.7814  141.9941  153.3204 C.2     1  UNL1        0.2473
     33 O         138.3797  142.4690  152.8218 O.2     1  UNL1       -0.2728
     34 H         138.9054  138.8158  152.0378 H       1  UNL1        0.1498
     35 N         144.1069  142.7608  163.2764 N.1     1  UNL1       -0.1907
     36 C         143.8241  141.6932  162.2614 C.1     1  UNL1        0.1035
@<TRIPOS>BOND
     1    35    36    3
     2    36     1    1
     3     1     2   ar
     4     2     3   ar
     5     3     4   ar
     6     4     5   ar
     7     5     6   ar
     8     6     7    1
     9     7     8    1
    10     8     9   ar
    11     9    10   ar
    12    10    11   ar
    13    11    12   ar
    14    12    13   ar
    15    13    14   ar
    16    14    15   ar
    17    15    16   ar
    18    16    17   ar
    19    15    18    1
    20    18    19    1
    21    19    20    1
    22    21    20    1
    23    21    22    1
    24    22    23   am
    25    23    24    2
    26    23    25    1
    27    25    26    1
    28    26    27   ar
    29    27    28   ar
    30    28    29   ar
    31    29    30   ar
    32    30    31    1
    33    21    32    1
    34    32    33    2
    35     6     1   ar
    36    17     8   ar
    37    32    18   am
    38    31     4    1
    39    16    11   ar
    40    30    26   ar
    41    22    34    1
@<TRIPOS>MOLECULE
*****
 36 41 0 0 0
SMALL
GASTEIGER

@<TRIPOS>ATOM
      1 C         138.6250  139.3475  154.6972 C.ar    1  UNL1        0.1028
      2 C         139.2937  139.3510  153.3544 C.ar    1  UNL1        0.0131
      3 C         140.7061  139.8379  153.2212 C.ar    1  UNL1       -0.0015
      4 C         141.7310  140.3876  154.2315 C.ar    1  UNL1        0.0035
      5 C         140.4133  140.0205  154.8468 C.ar    1  UNL1        0.0358
      6 C         139.3689  139.8310  155.9067 C.ar    1  UNL1        0.1545
      7 O         138.7389  139.8448  157.2679 O.3     1  UNL1       -0.4528
      8 C         138.6085  140.0600  158.7466 C.ar    1  UNL1        0.1454
      9 C         137.3823  139.8219  159.9026 C.ar    1  UNL1        0.0375
     10 C         137.3793  140.0828  161.3797 C.ar    1  UNL1        0.0032
     11 C         138.6016  140.6427  162.0449 C.ar    1  UNL1        0.0014
     12 C         138.5579  140.8893  163.5239 C.ar    1  UNL1        0.0001
     13 C         139.7594  141.4483  164.2268 C.ar    1  UNL1        0.0013
     14 C         141.0044  141.7607  163.4507 C.ar    1  UNL1        0.0149
     15 C         141.0481  141.5141  161.9718 C.ar    1  UNL1        0.0539
     16 C         139.8466  140.9551  161.2689 C.ar    1  UNL1        0.0167
     17 C         138.9951  140.4475  160.1431 C.ar    1  UNL1        0.0387
     18 N         142.4372  142.0491  162.1569 N.am    1  UNL1       -0.2572
     19 C         143.3298  142.5650  163.2463 C.3     1  UNL1        0.1005
     20 C         144.6475  142.9322  162.6310 C.3     1  UNL1        0.0509
     21 C         145.0278  142.7709  160.9471 C.3     1  UNL1        0.1508
     22 N         145.8794  142.8602  159.7156 N.am    1  UNL1       -0.2980
     23 C         146.2663  142.7438  158.2710 C.2     1  UNL1        0.2288
     24 O         147.6734  143.2611  158.3199 O.2     1  UNL1       -0.2747
     25 C         146.1360  142.4372  156.8085 C.3     1  UNL1        0.1303
     26 C         145.5062  141.9819  155.5255 C.ar    1  UNL1        0.0670
     27 C         146.7344  142.2827  154.7186 C.ar    1  UNL1        0.1138
     28 N         146.4492  141.9261  153.2898 N.ar    1  UNL1       -0.2227
     29 C         145.0447  141.4049  153.2136 C.ar    1  UNL1        0.1786
     30 N         144.4619  141.4393  154.5953 N.ar    1  UNL1       -0.3078
     31 C         143.1442  140.8829  154.1436 C.3     1  UNL1        0.1341
     32 C         143.8263  142.4877  161.7992 C.2     1  UNL1        0.2473
     33 O         143.9200  142.6587  162.5721 O.2     1  UNL1       -0.2728
     34 H         146.7097  143.2279  160.0961 H       1  UNL1        0.1498
     35 N         135.8000  138.3735  154.9636 N.1     1  UNL1       -0.1907
     36 C         137.2126  138.8605  154.8304 C.1     1  UNL1        0.1035
@<TRIPOS>BOND
     1    35    36    3
     2    36     1    1
     3     1     2   ar
     4     2     3   ar
     5     3     4   ar
     6     4     5   ar
     7     5     6   ar
     8     6     7    1
     9     7     8    1
    10     8     9   ar
    11     9    10   ar
    12    10    11   ar
    13    11    12   ar
    14    12    13   ar
    15    13    14   ar
    16    14    15   ar
    17    15    16   ar
    18    16    17   ar
    19    15    18    1
    20    18    19    1
    21    19    20    1
    22    21    20    1
    23    21    22    1
    24    22    23   am
    25    23    24    2
    26    23    25    1
    27    25    26    1
    28    26    27   ar
    29    27    28   ar
    30    28    29   ar
    31    29    30   ar
    32    30    31    1
    33    21    32    1
    34    32    33    2
    35     6     1   ar
    36    17     8   ar
    37    32    18   am
    38    31     4    1
    39    16    11   ar
    40    30    26   ar
    41    22    34    1
@<TRIPOS>MOLECULE
*****
 36 41 0 0 0
SMALL
GASTEIGER

@<TRIPOS>ATOM
      1 C         142.3632  139.9797  162.1322 C.ar    1  UNL1        0.1028
      2 C         142.8166  138.5701  162.3722 C.ar    1  UNL1        0.0131
      3 C         142.9924  137.6315  161.2155 C.ar    1  UNL1       -0.0015
      4 C         142.7999  137.7854  159.6948 C.ar    1  UNL1        0.0035
      5 C         142.4938  139.0315  160.4717 C.ar    1  UNL1        0.0358
      6 C         142.0857  140.4506  160.7353 C.ar    1  UNL1        0.1545
      7 O         141.6307  141.8512  160.4499 O.3     1  UNL1       -0.4528
      8 C         141.1903  143.0439  159.6541 C.ar    1  UNL1        0.1454
      9 C         140.7367  144.6434  160.0179 C.ar    1  UNL1        0.0375
     10 C         140.3092  145.7594  159.1114 C.ar    1  UNL1        0.0032
     11 C         140.2357  145.5359  157.6300 C.ar    1  UNL1        0.0014
     12 C         139.8036  146.6774  156.7579 C.ar    1  UNL1        0.0001
     13 C         139.7172  146.4946  155.2716 C.ar    1  UNL1        0.0013
     14 C         140.0627  145.1705  154.6574 C.ar    1  UNL1        0.0149
     15 C         140.4947  144.0291  155.5294 C.ar    1  UNL1        0.0539
     16 C         140.5812  144.2118  157.0157 C.ar    1  UNL1        0.0167
     17 C         140.8240  143.8679  158.4554 C.ar    1  UNL1        0.0387
     18 N         140.5762  143.3445  154.1972 N.am    1  UNL1       -0.2572
     19 C         140.3479  143.6366  152.7438 C.3     1  UNL1        0.1005
     20 C         140.6540  142.3905  151.9669 C.3     1  UNL1        0.0509
     21 C         141.1781  140.8947  152.6699 C.3     1  UNL1        0.1508
     22 N         141.6171  139.4605  152.6810 N.am    1  UNL1       -0.2980
     23 C         142.0725  138.1413  153.2309 C.2     1  UNL1        0.2288
     24 O         142.1952  137.3433  151.9668 O.2     1  UNL1       -0.2747
     25 C         142.4829  137.1155  154.2454 C.3     1  UNL1        0.1303
     26 C         142.7927  136.5214  155.5875 C.ar    1  UNL1        0.0670
     27 C         143.1455  135.1841  155.0070 C.ar    1  UNL1        0.1138
     28 N         143.5310  134.2756  156.1366 N.ar    1  UNL1       -0.2227
     29 C         143.4165  135.0515  157.4152 C.ar    1  UNL1        0.1786
     30 N         142.9602  136.4395  157.0759 N.ar    1  UNL1       -0.3078
     31 C         142.9627  136.8806  158.5095 C.3     1  UNL1        0.1341
     32 C         140.8147  142.2504  153.1991 C.2     1  UNL1        0.2473
     33 O         140.6003  142.7779  152.6412 O.2     1  UNL1       -0.2728
     34 H         141.5877  139.2549  151.7187 H       1  UNL1        0.1498
     35 N         142.0114  141.8569  164.4457 N.1     1  UNL1       -0.1907
     36 C         142.1873  140.9183  163.2889 C.1     1  UNL1        0.1035
@<TRIPOS>BOND
     1    35    36    3
     2    36     1    1
     3     1     2   ar
     4     2     3   ar
     5     3     4   ar
     6     4     5   ar
     7     5     6   ar
     8     6     7    1
     9     7     8    1
    10     8     9   ar
    11     9    10   ar
    12    10    11   ar
    13    11    12   ar
    14    12    13   ar
    15    13    14   ar
    16    14    15   ar
    17    15    16   ar
    18    16    17   ar
    19    15    18    1
    20    18    19    1
    21    19    20    1
    22    21    20    1
    23    21    22    1
    24    22    23   am
    25    23    24    2
    26    23    25    1
    27    25    26    1
    28    26    27   ar
    29    27    28   ar
    30    28    29   ar
    31    29    30   ar
    32    30    31    1
    33    21    32    1
    34    32    33    2
    35     6     1   ar
    36    17     8   ar
    37    32    18   am
    38    31     4    1
    39    16    11   ar
    40    30    26   ar
    41    22    34    1
@<TRIPOS>MOLECULE
*****
 36 41 0 0 0
SMALL
GASTEIGER

@<TRIPOS>ATOM
      1 C         138.4955  143.1292  154.6148 C.ar    1  UNL1        0.1028
      2 C         138.2070  142.2775  153.4142 C.ar    1  UNL1        0.0131
      3 C         138.7024  140.8627  153.3617 C.ar    1  UNL1       -0.0015
      4 C         139.5144  139.9934  154.3406 C.ar    1  UNL1        0.0035
      5 C         139.2529  141.3832  154.8408 C.ar    1  UNL1        0.0358
      6 C         139.2795  142.5659  155.7629 C.ar    1  UNL1        0.1545
      7 O         139.5907  143.3820  156.9825 O.3     1  UNL1       -0.4528
      8 C         140.1443  143.7211  158.3346 C.ar    1  UNL1        0.1454
      9 C         140.1395  145.0971  159.3361 C.ar    1  UNL1        0.0375
     10 C         140.7421  145.3101  160.6931 C.ar    1  UNL1        0.0032
     11 C         141.4899  144.1966  161.3648 C.ar    1  UNL1        0.0014
     12 C         142.0775  144.4500  162.7215 C.ar    1  UNL1        0.0001
     13 C         142.8325  143.3626  163.4268 C.ar    1  UNL1        0.0013
     14 C         143.0000  142.0218  162.7753 C.ar    1  UNL1        0.0149
     15 C         142.4125  141.7685  161.4186 C.ar    1  UNL1        0.0539
     16 C         141.6574  142.8559  160.7134 C.ar    1  UNL1        0.0167
     17 C         140.8657  143.5375  159.6369 C.ar    1  UNL1        0.0387
     18 N         143.0289  140.4220  161.6574 N.am    1  UNL1       -0.2572
     19 C         143.8217  139.6947  162.7026 C.3     1  UNL1        0.1005
     20 C         144.0832  138.3050  162.2024 C.3     1  UNL1        0.0509
     21 C         143.5429  137.6899  160.6740 C.3     1  UNL1        0.1508
     22 N         143.3711  136.6732  159.5847 N.am    1  UNL1       -0.2980
     23 C         142.9312  136.0855  158.2765 C.2     1  UNL1        0.2288
     24 O         143.4990  134.7018  158.3911 O.2     1  UNL1       -0.2747
     25 C         142.2826  136.0064  156.9263 C.3     1  UNL1        0.1303
     26 C         141.5130  136.4465  155.7163 C.ar    1  UNL1        0.0670
     27 C         141.6613  135.1180  155.0358 C.ar    1  UNL1        0.1138
     28 N         140.9663  135.1968  153.7089 N.ar    1  UNL1       -0.2227
     29 C         140.3883  136.5740  153.5694 C.ar    1  UNL1        0.1786
     30 N         140.7262  137.3463  154.8101 N.ar    1  UNL1       -0.3078
     31 C         140.0286  138.5844  154.3298 C.3     1  UNL1        0.1341
     32 C         143.4235  138.9984  161.3975 C.2     1  UNL1        0.2473
     33 O         143.7759  139.0156  162.1123 O.2     1  UNL1       -0.2728
     34 H         143.8498  135.9068  159.9754 H       1  UNL1        0.1498
     35 N         137.5046  145.9589  154.7199 N.1     1  UNL1       -0.1907
     36 C         138.0001  144.5440  154.6673 C.1     1  UNL1        0.1035
@<TRIPOS>BOND
     1    35    36    3
     2    36     1    1
     3     1     2   ar
     4     2     3   ar
     5     3     4   ar
     6     4     5   ar
     7     5     6   ar
     8     6     7    1
     9     7     8    1
    10     8     9   ar
    11     9    10   ar
    12    10    11   ar
    13    11    12   ar
    14    12    13   ar
    15    13    14   ar
    16    14    15   ar
    17    15    16   ar
    18    16    17   ar
    19    15    18    1
    20    18    19    1
    21    19    20    1
    22    21    20    1
    23    21    22    1
    24    22    23   am
    25    23    24    2
    26    23    25    1
    27    25    26    1
    28    26    27   ar
    29    27    28   ar
    30    28    29   ar
    31    29    30   ar
    32    30    31    1
    33    21    32    1
    34    32    33    2
    35     6     1   ar
    36    17     8   ar
    37    32    18   am
    38    31     4    1
    39    16    11   ar
    40    30    26   ar
    41    22    34    1
