@<TRIPOS>MOLECULE
*****
 31 34 0 0 0
SMALL
GASTEIGER

@<TRIPOS>ATOM
      1 C         139.0053  143.1682  162.3131 C.2     1  UNL1        0.1897
      2 N         139.0797  144.4654  161.5636 N.2     1  UNL1       -0.2200
      3 C         140.1428  144.3336  160.5136 C.2     1  UNL1        0.0982
      4 C         140.6556  145.2909  159.4789 C.2     1  UNL1        0.0327
      5 C         141.7511  144.8695  158.5448 C.2     1  UNL1        0.0687
      6 CL        142.2640  145.8269  157.5100 Cl      1  UNL1       -0.0812
      7 C         142.3337  143.4910  158.6455 C.2     1  UNL1        0.0417
      8 C         141.8209  142.5338  159.6802 C.3     1  UNL1        0.0892
      9 C         140.7255  142.9551  160.6143 C.2     1  UNL1        0.0844
     10 N         140.0224  142.2348  161.7264 N.2     1  UNL1       -0.2237
     11 N         143.4292  143.0697  157.7113 N.pl3   1  UNL1       -0.3070
     12 C         143.1723  143.0048  156.2350 C.3     1  UNL1        0.1079
     13 C         144.2678  142.5835  155.3009 C.3     1  UNL1        0.0938
     14 N         145.6201  142.2269  155.8433 N.3     1  UNL1       -0.2698
     15 C         145.8769  142.2918  157.3198 C.3     1  UNL1        0.0938
     16 C         144.7814  142.7131  158.2538 C.3     1  UNL1        0.1079
     17 C         146.7155  141.8056  154.9093 C.3     1  UNL1        0.0722
     18 C         148.1444  141.8415  155.3644 C.3     1  UNL1        0.0188
     19 S         138.0768  142.8588  163.4498 S.3     1  UNL1       -0.0773
     20 C         140.9760  141.5913  168.2278 C.2     1  UNL1        0.4049
     21 O         141.7123  142.7995  168.7261 O.2     1  UNL1       -0.2262
     22 N         140.1432  141.6810  166.9835 N.am    1  UNL1       -0.2460
     23 C         140.0466  142.9787  166.2376 C.3     1  UNL1        0.0976
     24 C         139.2137  143.0684  164.9933 C.3     1  UNL1        0.0321
     25 C         138.4774  141.8602  164.4950 C.3     1  UNL1        0.0494
     26 C         137.6020  140.9988  163.6337 C.3     1  UNL1        0.0114
     27 C         138.5740  140.5624  165.2409 C.3     1  UNL1        0.0321
     28 C         139.4069  140.4728  166.4852 C.3     1  UNL1        0.0976
     29 O         141.0727  140.2936  168.9739 O.3     1  UNL1       -0.4345
     30 C         142.8634  139.1585  167.4723 C.3     1  UNL1        0.0513
     31 C         142.2955  139.4365  168.8326 C.3     1  UNL1        0.2102
@<TRIPOS>BOND
     1    30    31    1
     2    31    29    1
     3    29    20    1
     4    20    21    2
     5    20    22   am
     6    22    23    1
     7    23    24    1
     8    24    25    1
     9    25    26    1
    10    25    19    1
    11    19     1    1
    12     1     2    2
    13     2     3    1
    14     3     4    2
    15     4     5    1
    16     5     6    1
    17     5     7    2
    18     7    11    1
    19    11    12    1
    20    12    13    1
    21    13    14    1
    22    14    17    1
    23    17    18    1
    24    14    15    1
    25    15    16    1
    26     7     8    1
    27     8     9    1
    28     9    10    2
    29    25    27    1
    30    27    28    1
    31    28    22    1
    32    10     1    1
    33     9     3    1
    34    16    11    1
@<TRIPOS>MOLECULE
*****
 31 34 0 0 0
SMALL
GASTEIGER

@<TRIPOS>ATOM
      1 C         140.4516  139.3911  159.6183 C.2     1  UNL1        0.1897
      2 N         139.5263  138.3955  160.2528 N.2     1  UNL1       -0.2200
      3 C         139.6821  138.5008  161.7409 C.2     1  UNL1        0.0982
      4 C         139.0256  137.7678  162.8731 C.2     1  UNL1        0.0327
      5 C         139.3908  138.0956  164.2906 C.2     1  UNL1        0.0687
      6 CL        138.7343  137.3627  165.4229 Cl      1  UNL1       -0.0812
      7 C         140.4122  139.1563  164.5759 C.2     1  UNL1        0.0417
      8 C         141.0687  139.8893  163.4437 C.3     1  UNL1        0.0892
      9 C         140.7036  139.5615  162.0262 C.2     1  UNL1        0.0844
     10 N         141.1792  140.1118  160.7144 N.2     1  UNL1       -0.2237
     11 N         140.7774  139.4841  165.9934 N.pl3   1  UNL1       -0.3070
     12 C         142.1447  139.1505  166.5120 C.3     1  UNL1        0.1079
     13 C         142.5098  139.4783  167.9296 C.3     1  UNL1        0.0938
     14 N         141.5075  140.1397  168.8284 N.3     1  UNL1       -0.2698
     15 C         140.1402  140.4734  168.3097 C.3     1  UNL1        0.0938
     16 C         139.7751  140.1455  166.8922 C.3     1  UNL1        0.1079
     17 C         141.8726  140.4676  170.2458 C.3     1  UNL1        0.0722
     18 C         140.9029  141.2086  171.1179 C.3     1  UNL1        0.0188
     19 S         140.6198  139.6251  158.1463 S.3     1  UNL1       -0.0773
     20 C         142.7279  134.7644  155.9620 C.2     1  UNL1        0.4049
     21 O         144.0240  134.4123  156.6300 O.2     1  UNL1       -0.2262
     22 N         141.9859  136.0024  156.3701 N.am    1  UNL1       -0.2460
     23 C         142.5399  136.8884  157.4463 C.3     1  UNL1        0.0976
     24 C         141.7978  138.1264  157.8544 C.3     1  UNL1        0.0321
     25 C         140.5018  138.4786  157.1863 C.3     1  UNL1        0.0494
     26 C         139.2467  139.2288  156.8516 C.3     1  UNL1        0.0114
     27 C         139.9478  137.5926  156.1101 C.3     1  UNL1        0.0321
     28 C         140.6898  136.3546  155.7020 C.3     1  UNL1        0.0976
     29 O         142.1740  133.8784  154.8858 O.3     1  UNL1       -0.4345
     30 C         142.0574  131.3800  155.5889 C.3     1  UNL1        0.0513
     31 C         141.3669  132.6683  155.2520 C.3     1  UNL1        0.2102
@<TRIPOS>BOND
     1    30    31    1
     2    31    29    1
     3    29    20    1
     4    20    21    2
     5    20    22   am
     6    22    23    1
     7    23    24    1
     8    24    25    1
     9    25    26    1
    10    25    19    1
    11    19     1    1
    12     1     2    2
    13     2     3    1
    14     3     4    2
    15     4     5    1
    16     5     6    1
    17     5     7    2
    18     7    11    1
    19    11    12    1
    20    12    13    1
    21    13    14    1
    22    14    17    1
    23    17    18    1
    24    14    15    1
    25    15    16    1
    26     7     8    1
    27     8     9    1
    28     9    10    2
    29    25    27    1
    30    27    28    1
    31    28    22    1
    32    10     1    1
    33     9     3    1
    34    16    11    1
@<TRIPOS>MOLECULE
*****
 31 34 0 0 0
SMALL
GASTEIGER

@<TRIPOS>ATOM
      1 C         141.2521  138.5443  162.7345 C.2     1  UNL1        0.1897
      2 N         140.5223  139.6837  162.0871 N.2     1  UNL1       -0.2200
      3 C         141.3835  140.2168  160.9806 C.2     1  UNL1        0.0982
      4 C         141.1815  141.3351  160.0016 C.2     1  UNL1        0.0327
      5 C         142.2417  141.6434  158.9861 C.2     1  UNL1        0.0687
      6 CL        142.0397  142.7618  158.0070 Cl      1  UNL1       -0.0812
      7 C         143.5036  140.8335  158.9497 C.2     1  UNL1        0.0417
      8 C         143.7056  139.7152  159.9288 C.3     1  UNL1        0.0892
      9 C         142.6455  139.4068  160.9443 C.2     1  UNL1        0.0844
     10 N         142.5643  138.3732  162.0282 N.2     1  UNL1       -0.2237
     11 N         144.5637  141.1418  157.9342 N.pl3   1  UNL1       -0.3070
     12 C         145.5002  142.2928  158.1535 C.3     1  UNL1        0.1079
     13 C         146.5604  142.6011  157.1380 C.3     1  UNL1        0.0938
     14 N         146.6839  141.7584  155.9033 N.3     1  UNL1       -0.2698
     15 C         145.7473  140.6074  155.6841 C.3     1  UNL1        0.0938
     16 C         144.6872  140.2991  156.6995 C.3     1  UNL1        0.1079
     17 C         147.7440  142.0666  154.8878 C.3     1  UNL1        0.0722
     18 C         149.1795  141.7451  155.1809 C.3     1  UNL1        0.0188
     19 S         140.7567  137.7206  163.8860 S.3     1  UNL1       -0.0773
     20 C         140.9423  140.6548  168.8051 C.2     1  UNL1        0.4049
     21 O         142.3648  140.9267  169.1959 O.2     1  UNL1       -0.2262
     22 N         140.6423  139.8968  167.5460 N.am    1  UNL1       -0.2460
     23 C         141.7647  139.4107  166.6777 C.3     1  UNL1        0.0976
     24 C         141.4646  138.6527  165.4186 C.3     1  UNL1        0.0321
     25 C         140.0422  138.3808  165.0278 C.3     1  UNL1        0.0494
     26 C         138.8678  137.8796  164.2405 C.3     1  UNL1        0.0114
     27 C         138.9198  138.8669  165.8961 C.3     1  UNL1        0.0321
     28 C         139.2198  139.6249  167.1552 C.3     1  UNL1        0.0976
     29 O         139.8200  141.1409  169.6735 O.3     1  UNL1       -0.4345
     30 C         140.4075  143.6673  169.5238 C.3     1  UNL1        0.0513
     31 C         139.8979  142.4965  170.3110 C.3     1  UNL1        0.2102
@<TRIPOS>BOND
     1    30    31    1
     2    31    29    1
     3    29    20    1
     4    20    21    2
     5    20    22   am
     6    22    23    1
     7    23    24    1
     8    24    25    1
     9    25    26    1
    10    25    19    1
    11    19     1    1
    12     1     2    2
    13     2     3    1
    14     3     4    2
    15     4     5    1
    16     5     6    1
    17     5     7    2
    18     7    11    1
    19    11    12    1
    20    12    13    1
    21    13    14    1
    22    14    17    1
    23    17    18    1
    24    14    15    1
    25    15    16    1
    26     7     8    1
    27     8     9    1
    28     9    10    2
    29    25    27    1
    30    27    28    1
    31    28    22    1
    32    10     1    1
    33     9     3    1
    34    16    11    1
@<TRIPOS>MOLECULE
*****
 31 34 0 0 0
SMALL
GASTEIGER

@<TRIPOS>ATOM
      1 C         144.2599  141.9491  160.4520 C.2     1  UNL1        0.1897
      2 N         144.5412  142.2494  159.0096 N.2     1  UNL1       -0.2200
      3 C         144.1217  141.0596  158.1981 C.2     1  UNL1        0.0982
      4 C         144.1621  140.7855  156.7240 C.2     1  UNL1        0.0327
      5 C         143.6620  139.4756  156.1908 C.2     1  UNL1        0.0687
      6 CL        143.7023  139.2014  154.7165 Cl      1  UNL1       -0.0812
      7 C         143.1215  138.4401  157.1317 C.2     1  UNL1        0.0417
      8 C         143.0812  138.7142  158.6059 C.3     1  UNL1        0.0892
      9 C         143.5813  140.0240  159.1391 C.2     1  UNL1        0.0844
     10 N         143.6667  140.5738  160.5321 N.2     1  UNL1       -0.2237
     11 N         142.6214  137.1302  156.5985 N.pl3   1  UNL1       -0.3070
     12 C         141.2626  137.0463  155.9690 C.3     1  UNL1        0.1079
     13 C         140.7625  135.7365  155.4358 C.3     1  UNL1        0.0938
     14 N         141.6213  134.5105  155.5322 N.3     1  UNL1       -0.2698
     15 C         142.9802  134.5943  156.1619 C.3     1  UNL1        0.0938
     16 C         143.4803  135.9042  156.6950 C.3     1  UNL1        0.1079
     17 C         141.1213  133.2006  154.9991 C.3     1  UNL1        0.0722
     18 C         141.7451  131.9164  155.4591 C.3     1  UNL1        0.0188
     19 S         144.5253  142.8636  161.6110 S.3     1  UNL1       -0.0773
     20 C         139.4595  145.0599  163.1457 C.2     1  UNL1        0.4049
     21 O         138.8343  145.7840  161.9903 O.2     1  UNL1       -0.2262
     22 N         140.7961  144.3992  162.9820 N.am    1  UNL1       -0.2460
     23 C         141.5075  144.4625  161.6630 C.3     1  UNL1        0.0976
     24 C         142.8442  143.8017  161.4993 C.3     1  UNL1        0.0321
     25 C         143.4694  143.0776  162.6547 C.3     1  UNL1        0.0494
     26 C         144.4613  142.2793  163.4476 C.3     1  UNL1        0.0114
     27 C         142.7580  143.0143  163.9737 C.3     1  UNL1        0.0321
     28 C         141.4214  143.6751  164.1374 C.3     1  UNL1        0.0976
     29 O         138.7480  144.9967  164.4647 O.3     1  UNL1       -0.4345
     30 C         137.7526  142.6445  163.9888 C.3     1  UNL1        0.0513
     31 C         137.6814  143.9671  164.6930 C.3     1  UNL1        0.2102
@<TRIPOS>BOND
     1    30    31    1
     2    31    29    1
     3    29    20    1
     4    20    21    2
     5    20    22   am
     6    22    23    1
     7    23    24    1
     8    24    25    1
     9    25    26    1
    10    25    19    1
    11    19     1    1
    12     1     2    2
    13     2     3    1
    14     3     4    2
    15     4     5    1
    16     5     6    1
    17     5     7    2
    18     7    11    1
    19    11    12    1
    20    12    13    1
    21    13    14    1
    22    14    17    1
    23    17    18    1
    24    14    15    1
    25    15    16    1
    26     7     8    1
    27     8     9    1
    28     9    10    2
    29    25    27    1
    30    27    28    1
    31    28    22    1
    32    10     1    1
    33     9     3    1
    34    16    11    1
@<TRIPOS>MOLECULE
*****
 31 34 0 0 0
SMALL
GASTEIGER

@<TRIPOS>ATOM
      1 C         142.3880  137.6382  157.3766 C.2     1  UNL1        0.1897
      2 N         141.0141  138.2232  157.2347 N.2     1  UNL1       -0.2200
      3 C         140.4919  138.5184  158.6096 C.2     1  UNL1        0.0982
      4 C         139.1950  139.1018  159.0867 C.2     1  UNL1        0.0327
      5 C         138.9493  139.2826  160.5554 C.2     1  UNL1        0.0687
      6 CL        137.6523  139.8660  161.0326 Cl      1  UNL1       -0.0812
      7 C         140.0003  138.8800  161.5468 C.2     1  UNL1        0.0417
      8 C         141.2972  138.2966  161.0697 C.3     1  UNL1        0.0892
      9 C         141.5430  138.1158  159.6011 C.2     1  UNL1        0.0844
     10 N         142.7149  137.5718  158.8390 N.2     1  UNL1       -0.2237
     11 N         139.7546  139.0608  163.0155 N.pl3   1  UNL1       -0.3070
     12 C         140.2426  140.2968  163.7110 C.3     1  UNL1        0.1079
     13 C         139.9969  140.4776  165.1798 C.3     1  UNL1        0.0938
     14 N         139.2631  139.4222  165.9528 N.3     1  UNL1       -0.2698
     15 C         138.7751  138.1861  165.2573 C.3     1  UNL1        0.0938
     16 C         139.0209  138.0054  163.7886 C.3     1  UNL1        0.1079
     17 C         139.0174  139.6029  167.4215 C.3     1  UNL1        0.0722
     18 C         140.0315  140.3111  168.2700 C.3     1  UNL1        0.0188
     19 S         143.2787  137.1969  156.2532 S.3     1  UNL1       -0.0773
     20 C         142.7732  131.4926  156.0375 C.2     1  UNL1        0.4049
     21 O         143.1246  130.8881  157.3646 O.2     1  UNL1       -0.2262
     22 N         142.8323  132.9798  155.8516 N.am    1  UNL1       -0.2460
     23 C         143.2429  133.8626  156.9927 C.3     1  UNL1        0.0976
     24 C         143.3020  135.3498  156.8068 C.3     1  UNL1        0.0321
     25 C         142.9506  135.9543  155.4797 C.3     1  UNL1        0.0494
     26 C         142.7131  136.9903  154.4212 C.3     1  UNL1        0.0114
     27 C         142.5401  135.0716  154.3385 C.3     1  UNL1        0.0321
     28 C         142.4809  133.5843  154.5245 C.3     1  UNL1        0.0976
     29 O         142.3627  130.6098  154.8964 O.3     1  UNL1       -0.4345
     30 C         139.7833  130.6275  154.5861 C.3     1  UNL1        0.0513
     31 C         141.0444  129.8953  154.9375 C.3     1  UNL1        0.2102
@<TRIPOS>BOND
     1    30    31    1
     2    31    29    1
     3    29    20    1
     4    20    21    2
     5    20    22   am
     6    22    23    1
     7    23    24    1
     8    24    25    1
     9    25    26    1
    10    25    19    1
    11    19     1    1
    12     1     2    2
    13     2     3    1
    14     3     4    2
    15     4     5    1
    16     5     6    1
    17     5     7    2
    18     7    11    1
    19    11    12    1
    20    12    13    1
    21    13    14    1
    22    14    17    1
    23    17    18    1
    24    14    15    1
    25    15    16    1
    26     7     8    1
    27     8     9    1
    28     9    10    2
    29    25    27    1
    30    27    28    1
    31    28    22    1
    32    10     1    1
    33     9     3    1
    34    16    11    1
@<TRIPOS>MOLECULE
*****
 31 34 0 0 0
SMALL
GASTEIGER

@<TRIPOS>ATOM
      1 C         140.8007  144.7309  161.8226 C.2     1  UNL1        0.1897
      2 N         140.9186  145.4896  160.5340 N.2     1  UNL1       -0.2200
      3 C         140.3026  144.6577  159.4484 C.2     1  UNL1        0.0982
      4 C         140.1313  144.8948  157.9772 C.2     1  UNL1        0.0327
      5 C         139.4613  143.8590  157.1237 C.2     1  UNL1        0.0687
      6 CL        139.2900  144.0960  155.6524 Cl      1  UNL1       -0.0812
      7 C         138.9627  142.5864  157.7414 C.2     1  UNL1        0.0417
      8 C         139.1340  142.3493  159.2126 C.3     1  UNL1        0.0892
      9 C         139.8039  143.3850  160.0661 C.2     1  UNL1        0.0844
     10 N         140.1117  143.4302  161.5335 N.2     1  UNL1       -0.2237
     11 N         138.2927  141.5506  156.8879 N.pl3   1  UNL1       -0.3070
     12 C         136.8128  141.6157  156.6523 C.3     1  UNL1        0.1079
     13 C         136.1428  140.5800  155.7988 C.3     1  UNL1        0.0938
     14 N         136.9529  139.4791  155.1809 N.3     1  UNL1       -0.2698
     15 C         138.4329  139.4140  155.4164 C.3     1  UNL1        0.0938
     16 C         139.1028  140.4497  156.2699 C.3     1  UNL1        0.1079
     17 C         136.2830  138.4433  154.3274 C.3     1  UNL1        0.0722
     18 C         137.0650  137.7238  153.2687 C.3     1  UNL1        0.0188
     19 S         141.2863  145.1920  163.1648 S.3     1  UNL1       -0.0773
     20 C         141.3948  141.4753  167.5255 C.2     1  UNL1        0.4049
     21 O         140.0231  141.3210  168.1125 O.2     1  UNL1       -0.2262
     22 N         141.6147  142.4013  166.3662 N.am    1  UNL1       -0.2460
     23 C         140.4628  143.1731  165.7938 C.3     1  UNL1        0.0976
     24 C         140.6827  144.0992  164.6345 C.3     1  UNL1        0.0321
     25 C         142.0544  144.2535  164.0475 C.3     1  UNL1        0.0494
     26 C         143.1594  144.7337  163.1540 C.3     1  UNL1        0.0114
     27 C         143.2063  143.4817  164.6198 C.3     1  UNL1        0.0321
     28 C         142.9864  142.5556  165.7792 C.3     1  UNL1        0.0976
     29 O         142.5467  140.7035  168.0979 O.3     1  UNL1       -0.4345
     30 C         143.7404  142.3193  169.7452 C.3     1  UNL1        0.0513
     31 C         143.0478  141.0162  169.4766 C.3     1  UNL1        0.2102
@<TRIPOS>BOND
     1    30    31    1
     2    31    29    1
     3    29    20    1
     4    20    21    2
     5    20    22   am
     6    22    23    1
     7    23    24    1
     8    24    25    1
     9    25    26    1
    10    25    19    1
    11    19     1    1
    12     1     2    2
    13     2     3    1
    14     3     4    2
    15     4     5    1
    16     5     6    1
    17     5     7    2
    18     7    11    1
    19    11    12    1
    20    12    13    1
    21    13    14    1
    22    14    17    1
    23    17    18    1
    24    14    15    1
    25    15    16    1
    26     7     8    1
    27     8     9    1
    28     9    10    2
    29    25    27    1
    30    27    28    1
    31    28    22    1
    32    10     1    1
    33     9     3    1
    34    16    11    1
@<TRIPOS>MOLECULE
*****
 31 34 0 0 0
SMALL
GASTEIGER

@<TRIPOS>ATOM
      1 C         140.6161  144.3906  159.5504 C.2     1  UNL1        0.1897
      2 N         139.7885  145.2848  160.4252 N.2     1  UNL1       -0.2200
      3 C         139.7969  144.7133  161.8121 C.2     1  UNL1        0.0982
      4 C         139.1538  145.1676  163.0888 C.2     1  UNL1        0.0327
      5 C         139.3436  144.3744  164.3477 C.2     1  UNL1        0.0687
      6 CL        138.7005  144.8287  165.6245 Cl      1  UNL1       -0.0812
      7 C         140.1764  143.1271  164.3300 C.2     1  UNL1        0.0417
      8 C         140.8195  142.6727  163.0533 C.3     1  UNL1        0.0892
      9 C         140.6298  143.4658  161.7943 C.2     1  UNL1        0.0844
     10 N         141.1361  143.2664  160.3965 N.2     1  UNL1       -0.2237
     11 N         140.3662  142.3339  165.5889 N.pl3   1  UNL1       -0.3070
     12 C         141.4660  142.6935  166.5433 C.3     1  UNL1        0.1079
     13 C         141.6558  141.9003  167.8023 C.3     1  UNL1        0.0938
     14 N         140.7457  140.7475  168.1067 N.3     1  UNL1       -0.2698
     15 C         139.6459  140.3879  167.1523 C.3     1  UNL1        0.0938
     16 C         139.4561  141.1811  165.8934 C.3     1  UNL1        0.1079
     17 C         140.9355  139.9543  169.3656 C.3     1  UNL1        0.0722
     18 C         142.2417  139.2653  169.6283 C.3     1  UNL1        0.0188
     19 S         140.8778  144.5862  158.0864 S.3     1  UNL1       -0.0773
     20 C         136.3675  141.7828  155.9325 C.2     1  UNL1        0.4049
     21 O         136.1691  140.4829  156.6542 O.2     1  UNL1       -0.2262
     22 N         137.4933  142.6936  156.3236 N.am    1  UNL1       -0.2460
     23 C         138.4207  142.3045  157.4365 C.3     1  UNL1        0.0976
     24 C         139.5465  143.2153  157.8277 C.3     1  UNL1        0.0321
     25 C         139.7449  144.5152  157.1059 C.3     1  UNL1        0.0494
     26 C         140.3367  145.8397  156.7246 C.3     1  UNL1        0.0114
     27 C         138.8175  144.9043  155.9930 C.3     1  UNL1        0.0321
     28 C         137.6917  143.9935  155.6018 C.3     1  UNL1        0.0976
     29 O         135.4401  142.1718  154.8196 O.3     1  UNL1       -0.4345
     30 C         135.4847  140.5713  152.7735 C.3     1  UNL1        0.0513
     31 C         134.7843  141.1121  153.9847 C.3     1  UNL1        0.2102
@<TRIPOS>BOND
     1    30    31    1
     2    31    29    1
     3    29    20    1
     4    20    21    2
     5    20    22   am
     6    22    23    1
     7    23    24    1
     8    24    25    1
     9    25    26    1
    10    25    19    1
    11    19     1    1
    12     1     2    2
    13     2     3    1
    14     3     4    2
    15     4     5    1
    16     5     6    1
    17     5     7    2
    18     7    11    1
    19    11    12    1
    20    12    13    1
    21    13    14    1
    22    14    17    1
    23    17    18    1
    24    14    15    1
    25    15    16    1
    26     7     8    1
    27     8     9    1
    28     9    10    2
    29    25    27    1
    30    27    28    1
    31    28    22    1
    32    10     1    1
    33     9     3    1
    34    16    11    1
@<TRIPOS>MOLECULE
*****
 31 34 0 0 0
SMALL
GASTEIGER

@<TRIPOS>ATOM
      1 C         142.3315  136.9087  156.2905 C.2     1  UNL1        0.1897
      2 N         140.9881  137.1822  156.8992 N.2     1  UNL1       -0.2200
      3 C         141.1734  138.1841  158.0000 C.2     1  UNL1        0.0982
      4 C         140.2029  138.8264  158.9464 C.2     1  UNL1        0.0327
      5 C         140.6904  139.8144  159.9644 C.2     1  UNL1        0.0687
      6 CL        139.7199  140.4567  160.9109 Cl      1  UNL1       -0.0812
      7 C         142.1482  140.1601  160.0360 C.2     1  UNL1        0.0417
      8 C         143.1187  139.5179  159.0895 C.3     1  UNL1        0.0892
      9 C         142.6313  138.5299  158.0715 C.2     1  UNL1        0.0844
     10 N         143.3470  137.7416  157.0150 N.2     1  UNL1       -0.2237
     11 N         142.6357  141.1481  161.0540 N.pl3   1  UNL1       -0.3070
     12 C         142.6478  142.6129  160.7317 C.3     1  UNL1        0.1079
     13 C         143.1353  143.6009  161.7497 C.3     1  UNL1        0.0938
     14 N         143.6106  143.1239  163.0900 N.3     1  UNL1       -0.2698
     15 C         143.5984  141.6590  163.4124 C.3     1  UNL1        0.0938
     16 C         143.1109  140.6711  162.3943 C.3     1  UNL1        0.1079
     17 C         144.0980  144.1119  164.1081 C.3     1  UNL1        0.0722
     18 C         144.4872  143.6453  165.4795 C.3     1  UNL1        0.0188
     19 S         142.6104  135.9675  155.1563 S.3     1  UNL1       -0.0773
     20 C         143.8672  130.8479  157.4040 C.2     1  UNL1        0.4049
     21 O         145.0791  130.9481  158.2823 O.2     1  UNL1       -0.2262
     22 N         143.3460  132.0674  156.7032 N.am    1  UNL1       -0.2460
     23 C         144.0367  133.3871  156.8806 C.3     1  UNL1        0.0976
     24 C         143.5155  134.6066  156.1797 C.3     1  UNL1        0.0321
     25 C         142.3037  134.5064  155.3014 C.3     1  UNL1        0.0494
     26 C         141.1983  134.9136  154.3728 C.3     1  UNL1        0.0114
     27 C         141.6130  133.1867  155.1240 C.3     1  UNL1        0.0321
     28 C         142.1342  131.9672  155.8249 C.3     1  UNL1        0.0976
     29 O         143.1766  129.5283  157.2267 O.3     1  UNL1       -0.4345
     30 C         142.8012  128.2072  159.4321 C.3     1  UNL1        0.0513
     31 C         143.5176  128.3765  158.1251 C.3     1  UNL1        0.2102
@<TRIPOS>BOND
     1    30    31    1
     2    31    29    1
     3    29    20    1
     4    20    21    2
     5    20    22   am
     6    22    23    1
     7    23    24    1
     8    24    25    1
     9    25    26    1
    10    25    19    1
    11    19     1    1
    12     1     2    2
    13     2     3    1
    14     3     4    2
    15     4     5    1
    16     5     6    1
    17     5     7    2
    18     7    11    1
    19    11    12    1
    20    12    13    1
    21    13    14    1
    22    14    17    1
    23    17    18    1
    24    14    15    1
    25    15    16    1
    26     7     8    1
    27     8     9    1
    28     9    10    2
    29    25    27    1
    30    27    28    1
    31    28    22    1
    32    10     1    1
    33     9     3    1
    34    16    11    1
@<TRIPOS>MOLECULE
*****
 31 34 0 0 0
SMALL
GASTEIGER

@<TRIPOS>ATOM
      1 C         142.1838  137.6584  157.8249 C.2     1  UNL1        0.1897
      2 N         140.7553  138.0340  158.0863 N.2     1  UNL1       -0.2200
      3 C         140.6645  138.5655  159.4860 C.2     1  UNL1        0.0982
      4 C         139.5095  139.0864  160.2888 C.2     1  UNL1        0.0327
      5 C         139.7268  139.5601  161.6954 C.2     1  UNL1        0.0687
      6 CL        138.5717  140.0810  162.4983 Cl      1  UNL1       -0.0812
      7 C         141.0991  139.5130  162.2991 C.2     1  UNL1        0.0417
      8 C         142.2542  138.9922  161.4962 C.3     1  UNL1        0.0892
      9 C         142.0369  138.5185  160.0897 C.2     1  UNL1        0.0844
     10 N         142.9759  137.9578  159.0631 N.2     1  UNL1       -0.2237
     11 N         141.3165  139.9868  163.7056 N.pl3   1  UNL1       -0.3070
     12 C         141.0953  139.0493  164.8554 C.3     1  UNL1        0.1079
     13 C         141.3127  139.5230  166.2620 C.3     1  UNL1        0.0938
     14 N         141.7512  140.9343  166.5187 N.3     1  UNL1       -0.2698
     15 C         141.9724  141.8718  165.3688 C.3     1  UNL1        0.0938
     16 C         141.7550  141.3981  163.9623 C.3     1  UNL1        0.1079
     17 C         141.9686  141.4081  167.9252 C.3     1  UNL1        0.0722
     18 C         143.1928  142.2045  168.2676 C.3     1  UNL1        0.0188
     19 S         142.7252  137.0842  156.5493 S.3     1  UNL1       -0.0773
     20 C         142.9656  131.3613  156.7307 C.2     1  UNL1        0.4049
     21 O         143.9907  130.9146  157.7305 O.2     1  UNL1       -0.2262
     22 N         142.7236  132.8248  156.5075 N.am    1  UNL1       -0.2460
     23 C         143.5067  133.8414  157.2841 C.3     1  UNL1        0.0976
     24 C         143.2647  135.3049  157.0609 C.3     1  UNL1        0.0321
     25 C         142.2396  135.7516  156.0611 C.3     1  UNL1        0.0494
     26 C         141.3831  136.6611  155.2309 C.3     1  UNL1        0.0114
     27 C         141.4564  134.7349  155.2845 C.3     1  UNL1        0.0321
     28 C         141.6984  133.2715  155.5077 C.3     1  UNL1        0.0976
     29 O         142.1825  130.3446  155.9542 O.3     1  UNL1       -0.4345
     30 C         143.7922  130.4699  153.9187 C.3     1  UNL1        0.0513
     31 C         142.7753  129.7192  154.7264 C.3     1  UNL1        0.2102
@<TRIPOS>BOND
     1    30    31    1
     2    31    29    1
     3    29    20    1
     4    20    21    2
     5    20    22   am
     6    22    23    1
     7    23    24    1
     8    24    25    1
     9    25    26    1
    10    25    19    1
    11    19     1    1
    12     1     2    2
    13     2     3    1
    14     3     4    2
    15     4     5    1
    16     5     6    1
    17     5     7    2
    18     7    11    1
    19    11    12    1
    20    12    13    1
    21    13    14    1
    22    14    17    1
    23    17    18    1
    24    14    15    1
    25    15    16    1
    26     7     8    1
    27     8     9    1
    28     9    10    2
    29    25    27    1
    30    27    28    1
    31    28    22    1
    32    10     1    1
    33     9     3    1
    34    16    11    1
