@<TRIPOS>MOLECULE
*****
 34 37 0 0 0
SMALL
GASTEIGER

@<TRIPOS>ATOM
      1 C         142.2864  139.1346  169.7131 C.ar    1  UNL1        0.0528
      2 C         140.9462  139.7188  170.0486 C.ar    1  UNL1        0.0150
      3 C         140.1749  140.4733  169.0066 C.ar    1  UNL1        0.0082
      4 C         140.7438  140.6436  167.6291 C.ar    1  UNL1        0.0827
      5 C         142.0840  140.0595  167.2937 C.ar    1  UNL1        0.1459
      6 F         142.6529  140.2298  165.9162 F       1  UNL1       -0.2040
      7 C         142.8553  139.3050  168.3357 C.ar    1  UNL1        0.0445
      8 C         139.9724  141.3982  166.5871 C.ar    1  UNL1        0.2534
      9 N         138.9489  140.8189  165.6561 N.ar    1  UNL1       -0.1057
     10 N         138.4330  141.9271  164.7868 N.ar    1  UNL1       -0.0923
     11 C         139.1378  143.1914  165.1806 C.ar    1  UNL1        0.3086
     12 O         140.0891  142.8645  166.2932 O.2     1  UNL1       -0.4048
     13 N         138.9279  144.5449  164.5690 N.pl3   1  UNL1       -0.2871
     14 H         138.3579  145.2070  165.0227 H       1  UNL1        0.1512
     15 C         139.5866  144.8895  163.2662 C.3     1  UNL1        0.0912
     16 C         141.0405  144.5852  163.0572 C.3     1  UNL1        0.0227
     17 C         142.0716  145.1938  163.9608 C.3     1  UNL1        0.0191
     18 C         143.5224  145.1443  163.5835 C.3     1  UNL1        0.0723
     19 N         144.1678  143.8306  163.2552 N.3     1  UNL1       -0.2685
     20 C         144.2857  143.3894  161.8264 C.3     1  UNL1        0.1046
     21 C         144.9311  142.0757  161.4980 C.3     1  UNL1        0.1595
     22 O         145.4584  141.2033  162.5984 O.3     1  UNL1       -0.3508
     23 C         145.3404  141.6446  164.0271 C.3     1  UNL1        0.1595
     24 C         144.6951  142.9583  164.3555 C.3     1  UNL1        0.1046
     25 O         144.1572  136.9364  168.8959 O.2     1  UNL1       -0.2698
     26 C         143.9931  137.2810  170.3465 C.2     1  UNL1        0.2495
     27 N         143.0577  138.3801  170.7551 N.am    1  UNL1       -0.2803
     28 H         142.9500  138.6062  171.7072 H       1  UNL1        0.1552
     29 C         144.7645  136.5265  171.3885 C.ar    1  UNL1        0.0537
     30 C         144.5993  135.0410  171.5148 C.ar    1  UNL1        0.0045
     31 C         145.3706  134.2865  172.5568 C.ar    1  UNL1        0.0001
     32 C         146.3072  135.0175  173.4725 C.ar    1  UNL1        0.0000
     33 C         146.4724  136.5030  173.3462 C.ar    1  UNL1        0.0001
     34 C         145.7011  137.2575  172.3042 C.ar    1  UNL1        0.0045
@<TRIPOS>BOND
     1    25    26    2
     2    26    27   am
     3    27     1    1
     4     1     2   ar
     5     2     3   ar
     6     3     4   ar
     7     4     8    1
     8     8     9   ar
     9     9    10   ar
    10    10    11   ar
    11    11    13    1
    12    13    15    1
    13    15    16    1
    14    16    17    1
    15    17    18    1
    16    18    19    1
    17    19    20    1
    18    20    21    1
    19    21    22    1
    20    22    23    1
    21    23    24    1
    22    11    12   ar
    23     4     5   ar
    24     5     6    1
    25     5     7   ar
    26    26    29    1
    27    29    30   ar
    28    30    31   ar
    29    31    32   ar
    30    32    33   ar
    31    33    34   ar
    32     7     1   ar
    33    34    29   ar
    34    12     8   ar
    35    24    19    1
    36    27    28    1
    37    13    14    1
@<TRIPOS>MOLECULE
*****
 34 37 0 0 0
SMALL
GASTEIGER

@<TRIPOS>ATOM
      1 C         140.1961  144.8196  160.9877 C.ar    1  UNL1        0.0528
      2 C         140.5032  145.7697  162.1071 C.ar    1  UNL1        0.0150
      3 C         140.8361  145.2399  163.4704 C.ar    1  UNL1        0.0082
      4 C         140.8619  143.7601  163.7142 C.ar    1  UNL1        0.0827
      5 C         140.5548  142.8100  162.5948 C.ar    1  UNL1        0.1459
      6 F         140.5806  141.3302  162.8387 F       1  UNL1       -0.2040
      7 C         140.2219  143.3398  161.2316 C.ar    1  UNL1        0.0445
      8 C         141.1949  143.2303  165.0775 C.ar    1  UNL1        0.2534
      9 N         142.5387  142.7398  165.5288 N.ar    1  UNL1       -0.1057
     10 N         142.4168  142.3043  166.9591 N.ar    1  UNL1       -0.0923
     11 C         140.9977  142.5258  167.3917 C.ar    1  UNL1        0.3086
     12 O         140.2425  143.0980  166.2288 O.2     1  UNL1       -0.4048
     13 N         140.4329  142.2273  168.7489 N.pl3   1  UNL1       -0.2871
     14 H         140.5573  142.8683  169.4857 H       1  UNL1        0.1512
     15 C         139.6786  140.9522  168.9835 C.3     1  UNL1        0.0912
     16 C         139.8603  139.7909  168.0516 C.3     1  UNL1        0.0227
     17 C         138.7257  139.3466  167.1768 C.3     1  UNL1        0.0191
     18 C         138.6709  139.7798  165.7419 C.3     1  UNL1        0.0723
     19 N         139.2559  138.9065  164.6718 N.3     1  UNL1       -0.2685
     20 C         138.5723  138.7903  163.3417 C.3     1  UNL1        0.1046
     21 C         139.1573  137.9170  162.2715 C.3     1  UNL1        0.1595
     22 O         140.4259  137.1599  162.5315 O.3     1  UNL1       -0.3508
     23 C         141.1094  137.2762  163.8616 C.3     1  UNL1        0.1595
     24 C         140.5244  138.1495  164.9318 C.3     1  UNL1        0.1046
     25 O         142.3338  145.0182  158.8923 O.2     1  UNL1       -0.2698
     26 C         140.9320  145.4487  158.5768 C.2     1  UNL1        0.2495
     27 N         139.8632  145.3494  159.6244 N.am    1  UNL1       -0.2803
     28 H         138.9431  145.6320  159.4173 H       1  UNL1        0.1552
     29 C         140.5991  145.9784  157.2134 C.ar    1  UNL1        0.0537
     30 C         139.4597  146.9384  157.0395 C.ar    1  UNL1        0.0045
     31 C         139.1268  147.4681  155.6762 C.ar    1  UNL1        0.0001
     32 C         139.9333  147.0379  154.4869 C.ar    1  UNL1        0.0000
     33 C         141.0727  146.0779  154.6608 C.ar    1  UNL1        0.0001
     34 C         141.4055  145.5482  156.0241 C.ar    1  UNL1        0.0045
@<TRIPOS>BOND
     1    25    26    2
     2    26    27   am
     3    27     1    1
     4     1     2   ar
     5     2     3   ar
     6     3     4   ar
     7     4     8    1
     8     8     9   ar
     9     9    10   ar
    10    10    11   ar
    11    11    13    1
    12    13    15    1
    13    15    16    1
    14    16    17    1
    15    17    18    1
    16    18    19    1
    17    19    20    1
    18    20    21    1
    19    21    22    1
    20    22    23    1
    21    23    24    1
    22    11    12   ar
    23     4     5   ar
    24     5     6    1
    25     5     7   ar
    26    26    29    1
    27    29    30   ar
    28    30    31   ar
    29    31    32   ar
    30    32    33   ar
    31    33    34   ar
    32     7     1   ar
    33    34    29   ar
    34    12     8   ar
    35    24    19    1
    36    27    28    1
    37    13    14    1
@<TRIPOS>MOLECULE
*****
 34 37 0 0 0
SMALL
GASTEIGER

@<TRIPOS>ATOM
      1 C         140.4305  144.4427  160.3729 C.ar    1  UNL1        0.0528
      2 C         140.7840  142.9851  160.3856 C.ar    1  UNL1        0.0150
      3 C         141.2649  142.3410  161.6520 C.ar    1  UNL1        0.0082
      4 C         141.3923  143.1546  162.9057 C.ar    1  UNL1        0.0827
      5 C         141.0389  144.6123  162.8930 C.ar    1  UNL1        0.1459
      6 F         141.1663  145.4259  164.1468 F       1  UNL1       -0.2040
      7 C         140.5580  145.2563  161.6266 C.ar    1  UNL1        0.0445
      8 C         141.8732  142.5104  164.1722 C.ar    1  UNL1        0.2534
      9 N         143.0345  142.9641  165.0063 N.ar    1  UNL1       -0.1057
     10 N         143.1564  142.0336  166.1764 N.ar    1  UNL1       -0.0923
     11 C         142.0703  141.0049  166.0656 C.ar    1  UNL1        0.3086
     12 O         141.2773  141.2996  164.8269 O.2     1  UNL1       -0.4048
     13 N         141.8211  139.8791  167.0250 N.pl3   1  UNL1       -0.2871
     14 H         142.3351  139.0430  166.9471 H       1  UNL1        0.1512
     15 C         140.7887  140.0271  168.1031 C.3     1  UNL1        0.0912
     16 C         139.3411  140.1771  167.7398 C.3     1  UNL1        0.0227
     17 C         138.6592  139.1196  166.9234 C.3     1  UNL1        0.0191
     18 C         138.3227  139.3827  165.4856 C.3     1  UNL1        0.0723
     19 N         139.0793  138.6802  164.3974 N.3     1  UNL1       -0.2685
     20 C         140.2761  137.8421  164.7369 C.3     1  UNL1        0.1046
     21 C         141.0328  137.1395  163.6488 C.3     1  UNL1        0.1595
     22 O         140.5926  137.2751  162.2212 O.3     1  UNL1       -0.3508
     23 C         139.3958  138.1132  161.8819 C.3     1  UNL1        0.1595
     24 C         138.6391  138.8157  162.9699 C.3     1  UNL1        0.1046
     25 O         142.4096  145.5284  158.3968 O.2     1  UNL1       -0.2698
     26 C         140.9391  145.6297  158.1184 C.2     1  UNL1        0.2495
     27 N         139.9496  145.0869  159.1064 N.am    1  UNL1       -0.2803
     28 H         138.9845  145.1534  158.9237 H       1  UNL1        0.1552
     29 C         140.4582  146.2739  156.8520 C.ar    1  UNL1        0.0537
     30 C         141.1117  145.9375  155.5444 C.ar    1  UNL1        0.0045
     31 C         140.6307  146.5816  154.2781 C.ar    1  UNL1        0.0001
     32 C         139.4963  147.5622  154.3193 C.ar    1  UNL1        0.0000
     33 C         138.8429  147.8985  155.6268 C.ar    1  UNL1        0.0001
     34 C         139.3238  147.2544  156.8932 C.ar    1  UNL1        0.0045
@<TRIPOS>BOND
     1    25    26    2
     2    26    27   am
     3    27     1    1
     4     1     2   ar
     5     2     3   ar
     6     3     4   ar
     7     4     8    1
     8     8     9   ar
     9     9    10   ar
    10    10    11   ar
    11    11    13    1
    12    13    15    1
    13    15    16    1
    14    16    17    1
    15    17    18    1
    16    18    19    1
    17    19    20    1
    18    20    21    1
    19    21    22    1
    20    22    23    1
    21    23    24    1
    22    11    12   ar
    23     4     5   ar
    24     5     6    1
    25     5     7   ar
    26    26    29    1
    27    29    30   ar
    28    30    31   ar
    29    31    32   ar
    30    32    33   ar
    31    33    34   ar
    32     7     1   ar
    33    34    29   ar
    34    12     8   ar
    35    24    19    1
    36    27    28    1
    37    13    14    1
@<TRIPOS>MOLECULE
*****
 34 37 0 0 0
SMALL
GASTEIGER

@<TRIPOS>ATOM
      1 C         139.8339  143.4174  163.7090 C.ar    1  UNL1        0.0528
      2 C         140.3428  142.5277  162.6139 C.ar    1  UNL1        0.0150
      3 C         140.6713  143.1062  161.2695 C.ar    1  UNL1        0.0082
      4 C         140.4910  144.5743  161.0203 C.ar    1  UNL1        0.0827
      5 C         139.9821  145.4640  162.1154 C.ar    1  UNL1        0.1459
      6 F         139.8017  146.9321  161.8662 F       1  UNL1       -0.2040
      7 C         139.6535  144.8855  163.4598 C.ar    1  UNL1        0.0445
      8 C         140.8195  145.1527  159.6758 C.ar    1  UNL1        0.2534
      9 N         142.1556  145.1000  158.9959 N.ar    1  UNL1       -0.1057
     10 N         142.0316  145.8000  157.6751 N.ar    1  UNL1       -0.0923
     11 C         140.6188  146.2854  157.5387 C.ar    1  UNL1        0.3086
     12 O         139.8698  145.8854  158.7752 O.2     1  UNL1       -0.4048
     13 N         140.0543  147.0387  156.3708 N.pl3   1  UNL1       -0.2871
     14 H         140.4419  147.9053  156.1101 H       1  UNL1        0.1512
     15 C         138.8991  146.4716  155.6001 C.3     1  UNL1        0.0912
     16 C         138.6287  144.9965  155.6313 C.3     1  UNL1        0.0227
     17 C         137.4536  144.4336  154.8881 C.3     1  UNL1        0.0191
     18 C         136.6144  143.3598  155.5146 C.3     1  UNL1        0.0723
     19 N         137.2546  142.0898  155.9912 N.3     1  UNL1       -0.2685
     20 C         137.5902  141.0054  155.0108 C.3     1  UNL1        0.1046
     21 C         138.2305  139.7352  155.4873 C.3     1  UNL1        0.1595
     22 O         138.5350  139.5496  156.9443 O.3     1  UNL1       -0.3508
     23 C         138.1993  140.6341  157.9247 C.3     1  UNL1        0.1595
     24 C         137.5591  141.9041  157.4482 C.3     1  UNL1        0.1046
     25 O         142.0007  143.0373  165.7487 O.2     1  UNL1       -0.2698
     26 C         140.5887  142.6490  166.0733 C.2     1  UNL1        0.2495
     27 N         139.5053  142.8390  165.0535 N.am    1  UNL1       -0.2803
     28 H         138.5785  142.5841  165.2666 H       1  UNL1        0.1552
     29 C         140.2601  142.0705  167.4178 C.ar    1  UNL1        0.0537
     30 C         139.7512  140.6636  167.5249 C.ar    1  UNL1        0.0045
     31 C         139.4226  140.0853  168.8693 C.ar    1  UNL1        0.0001
     32 C         139.6030  140.9139  170.1066 C.ar    1  UNL1        0.0000
     33 C         140.1120  142.3208  169.9995 C.ar    1  UNL1        0.0001
     34 C         140.4406  142.8991  168.6551 C.ar    1  UNL1        0.0045
@<TRIPOS>BOND
     1    25    26    2
     2    26    27   am
     3    27     1    1
     4     1     2   ar
     5     2     3   ar
     6     3     4   ar
     7     4     8    1
     8     8     9   ar
     9     9    10   ar
    10    10    11   ar
    11    11    13    1
    12    13    15    1
    13    15    16    1
    14    16    17    1
    15    17    18    1
    16    18    19    1
    17    19    20    1
    18    20    21    1
    19    21    22    1
    20    22    23    1
    21    23    24    1
    22    11    12   ar
    23     4     5   ar
    24     5     6    1
    25     5     7   ar
    26    26    29    1
    27    29    30   ar
    28    30    31   ar
    29    31    32   ar
    30    32    33   ar
    31    33    34   ar
    32     7     1   ar
    33    34    29   ar
    34    12     8   ar
    35    24    19    1
    36    27    28    1
    37    13    14    1
@<TRIPOS>MOLECULE
*****
 34 37 0 0 0
SMALL
GASTEIGER

@<TRIPOS>ATOM
      1 C         138.5524  142.2890  161.3500 C.ar    1  UNL1        0.0528
      2 C         139.1079  140.9038  161.5005 C.ar    1  UNL1        0.0150
      3 C         139.1392  140.2509  162.8505 C.ar    1  UNL1        0.0082
      4 C         138.6149  140.9832  164.0501 C.ar    1  UNL1        0.0827
      5 C         138.0594  142.3683  163.8996 C.ar    1  UNL1        0.1459
      6 F         137.5352  143.1006  165.0992 F       1  UNL1       -0.2040
      7 C         138.0281  143.0212  162.5495 C.ar    1  UNL1        0.0445
      8 C         138.6462  140.3302  165.4002 C.ar    1  UNL1        0.2534
      9 N         137.8002  139.1720  165.8392 N.ar    1  UNL1       -0.1057
     10 N         138.1601  138.8468  167.2586 N.ar    1  UNL1       -0.0923
     11 C         139.2286  139.8040  167.6968 C.ar    1  UNL1        0.3086
     12 O         139.5290  140.7208  166.5483 O.2     1  UNL1       -0.4048
     13 N         139.8820  139.8384  169.0466 N.pl3   1  UNL1       -0.2871
     14 H         139.5171  139.2978  169.7840 H       1  UNL1        0.1512
     15 C         141.0912  140.6966  169.2729 C.3     1  UNL1        0.0912
     16 C         142.4567  140.1704  168.9432 C.3     1  UNL1        0.0227
     17 C         142.6458  139.2615  167.7650 C.3     1  UNL1        0.0191
     18 C         142.9459  139.8384  166.4134 C.3     1  UNL1        0.0723
     19 N         142.6199  139.0569  165.1751 N.3     1  UNL1       -0.2685
     20 C         143.4515  139.2298  163.9388 C.3     1  UNL1        0.1046
     21 C         143.1257  138.4484  162.7004 C.3     1  UNL1        0.1595
     22 O         141.9683  137.4942  162.6986 O.3     1  UNL1       -0.3508
     23 C         141.1368  137.3214  163.9350 C.3     1  UNL1        0.1595
     24 C         141.4626  138.1028  165.1733 C.3     1  UNL1        0.1046
     25 O         141.0203  143.6020  160.2611 O.2     1  UNL1       -0.2698
     26 C         139.7550  143.5984  159.4555 C.2     1  UNL1        0.2495
     27 N         138.5211  142.9419  159.9998 N.am    1  UNL1       -0.2803
     28 H         137.6907  142.9396  159.4711 H       1  UNL1        0.1552
     29 C         139.7237  144.2514  158.1053 C.ar    1  UNL1        0.0537
     30 C         139.1040  143.5371  156.9410 C.ar    1  UNL1        0.0045
     31 C         139.0727  144.1901  155.5910 C.ar    1  UNL1        0.0001
     32 C         139.6612  145.5573  155.4053 C.ar    1  UNL1        0.0000
     33 C         140.2809  146.2716  156.5697 C.ar    1  UNL1        0.0001
     34 C         140.3122  145.6186  157.9197 C.ar    1  UNL1        0.0045
@<TRIPOS>BOND
     1    25    26    2
     2    26    27   am
     3    27     1    1
     4     1     2   ar
     5     2     3   ar
     6     3     4   ar
     7     4     8    1
     8     8     9   ar
     9     9    10   ar
    10    10    11   ar
    11    11    13    1
    12    13    15    1
    13    15    16    1
    14    16    17    1
    15    17    18    1
    16    18    19    1
    17    19    20    1
    18    20    21    1
    19    21    22    1
    20    22    23    1
    21    23    24    1
    22    11    12   ar
    23     4     5   ar
    24     5     6    1
    25     5     7   ar
    26    26    29    1
    27    29    30   ar
    28    30    31   ar
    29    31    32   ar
    30    32    33   ar
    31    33    34   ar
    32     7     1   ar
    33    34    29   ar
    34    12     8   ar
    35    24    19    1
    36    27    28    1
    37    13    14    1
@<TRIPOS>MOLECULE
*****
 34 37 0 0 0
SMALL
GASTEIGER

@<TRIPOS>ATOM
      1 C         139.1298  140.6912  163.4974 C.ar    1  UNL1        0.0528
      2 C         138.2189  139.5799  163.0671 C.ar    1  UNL1        0.0150
      3 C         138.2579  139.0836  161.6521 C.ar    1  UNL1        0.0082
      4 C         139.2079  139.6986  160.6675 C.ar    1  UNL1        0.0827
      5 C         140.1188  140.8099  161.0979 C.ar    1  UNL1        0.1459
      6 F         141.0687  141.4249  160.1134 F       1  UNL1       -0.2040
      7 C         140.0797  141.3062  162.5129 C.ar    1  UNL1        0.0445
      8 C         139.2469  139.2022  159.2525 C.ar    1  UNL1        0.2534
      9 N         138.5442  139.8219  158.0811 N.ar    1  UNL1       -0.1057
     10 N         138.8585  139.0018  156.8651 N.ar    1  UNL1       -0.0923
     11 C         139.7554  137.8752  157.2851 C.ar    1  UNL1        0.3086
     12 O         139.9955  137.9991  158.7605 O.2     1  UNL1       -0.4048
     13 N         140.3142  136.8114  156.3871 N.pl3   1  UNL1       -0.2871
     14 H         139.7106  136.2782  155.8209 H       1  UNL1        0.1512
     15 C         141.7926  136.5602  156.3519 C.3     1  UNL1        0.0912
     16 C         142.4352  136.0392  155.1006 C.3     1  UNL1        0.0227
     17 C         142.3639  134.5770  154.7738 C.3     1  UNL1        0.0191
     18 C         141.9145  133.5965  155.8162 C.3     1  UNL1        0.0723
     19 N         142.9276  132.7937  156.5771 N.3     1  UNL1       -0.2685
     20 C         142.8345  131.2967  156.6000 C.3     1  UNL1        0.1046
     21 C         143.8476  130.4937  157.3609 C.3     1  UNL1        0.1595
     22 O         144.9538  131.1878  158.0990 O.3     1  UNL1       -0.3508
     23 C         145.0468  132.6847  158.0761 C.3     1  UNL1        0.1595
     24 C         144.0337  133.4876  157.3152 C.3     1  UNL1        0.1046
     25 O         141.0302  139.5737  165.5321 O.2     1  UNL1       -0.2698
     26 C         140.0409  140.6288  165.9297 C.2     1  UNL1        0.2495
     27 N         139.0907  141.1875  164.9124 N.am    1  UNL1       -0.2803
     28 H         138.4415  141.8800  165.1734 H       1  UNL1        0.1552
     29 C         140.0019  141.1252  167.3447 C.ar    1  UNL1        0.0537
     30 C         140.5113  142.4974  167.6725 C.ar    1  UNL1        0.0045
     31 C         140.4722  142.9937  169.0874 C.ar    1  UNL1        0.0001
     32 C         139.9238  142.1177  170.1746 C.ar    1  UNL1        0.0000
     33 C         139.4144  140.7455  169.8469 C.ar    1  UNL1        0.0001
     34 C         139.4534  140.2492  168.4319 C.ar    1  UNL1        0.0045
@<TRIPOS>BOND
     1    25    26    2
     2    26    27   am
     3    27     1    1
     4     1     2   ar
     5     2     3   ar
     6     3     4   ar
     7     4     8    1
     8     8     9   ar
     9     9    10   ar
    10    10    11   ar
    11    11    13    1
    12    13    15    1
    13    15    16    1
    14    16    17    1
    15    17    18    1
    16    18    19    1
    17    19    20    1
    18    20    21    1
    19    21    22    1
    20    22    23    1
    21    23    24    1
    22    11    12   ar
    23     4     5   ar
    24     5     6    1
    25     5     7   ar
    26    26    29    1
    27    29    30   ar
    28    30    31   ar
    29    31    32   ar
    30    32    33   ar
    31    33    34   ar
    32     7     1   ar
    33    34    29   ar
    34    12     8   ar
    35    24    19    1
    36    27    28    1
    37    13    14    1
@<TRIPOS>MOLECULE
*****
 34 37 0 0 0
SMALL
GASTEIGER

@<TRIPOS>ATOM
      1 C         138.4342  142.2826  161.7401 C.ar    1  UNL1        0.0528
      2 C         138.2250  143.0921  162.9854 C.ar    1  UNL1        0.0150
      3 C         138.2553  142.4241  164.3281 C.ar    1  UNL1        0.0082
      4 C         138.4948  140.9465  164.4254 C.ar    1  UNL1        0.0827
      5 C         138.7040  140.1370  163.1801 C.ar    1  UNL1        0.1459
      6 F         138.9435  138.6595  163.2774 F       1  UNL1       -0.2040
      7 C         138.6737  140.8050  161.8374 C.ar    1  UNL1        0.0445
      8 C         138.5251  140.2785  165.7682 C.ar    1  UNL1        0.2534
      9 N         137.7269  139.0745  166.1722 N.ar    1  UNL1       -0.1057
     10 N         138.0674  138.7491  167.5963 N.ar    1  UNL1       -0.0923
     11 C         139.0761  139.7520  168.0724 C.ar    1  UNL1        0.3086
     12 O         139.3590  140.6972  166.9426 O.2     1  UNL1       -0.4048
     13 N         139.6936  139.8010  169.4386 N.pl3   1  UNL1       -0.2871
     14 H         139.1192  139.8217  170.2379 H       1  UNL1        0.1512
     15 C         141.1861  139.8186  169.5869 C.3     1  UNL1        0.0912
     16 C         141.8977  141.1109  169.8585 C.3     1  UNL1        0.0227
     17 C         141.9165  142.1900  168.8168 C.3     1  UNL1        0.0191
     18 C         142.9832  142.1960  167.7624 C.3     1  UNL1        0.0723
     19 N         142.6502  141.7942  166.3561 N.3     1  UNL1       -0.2685
     20 C         142.2766  142.8387  165.3463 C.3     1  UNL1        0.1046
     21 C         141.9435  142.4370  163.9399 C.3     1  UNL1        0.1595
     22 O         141.9840  140.9909  163.5434 O.3     1  UNL1       -0.3508
     23 C         142.3576  139.9466  164.5533 C.3     1  UNL1        0.1595
     24 C         142.6906  140.3483  165.9595 C.3     1  UNL1        0.1046
     25 O         140.9979  143.0944  160.4103 O.2     1  UNL1       -0.2698
     26 C         139.6857  143.3565  159.7325 C.2     1  UNL1        0.2495
     27 N         138.4039  142.9506  160.3973 N.am    1  UNL1       -0.2803
     28 H         137.5426  143.1226  159.9525 H       1  UNL1        0.1552
     29 C         139.6554  144.0245  158.3897 C.ar    1  UNL1        0.0537
     30 C         140.2570  145.3875  158.2164 C.ar    1  UNL1        0.0045
     31 C         140.2267  146.0555  156.8737 C.ar    1  UNL1        0.0001
     32 C         139.5947  145.3604  155.7043 C.ar    1  UNL1        0.0000
     33 C         138.9930  143.9973  155.8776 C.ar    1  UNL1        0.0001
     34 C         139.0234  143.3294  157.2203 C.ar    1  UNL1        0.0045
@<TRIPOS>BOND
     1    25    26    2
     2    26    27   am
     3    27     1    1
     4     1     2   ar
     5     2     3   ar
     6     3     4   ar
     7     4     8    1
     8     8     9   ar
     9     9    10   ar
    10    10    11   ar
    11    11    13    1
    12    13    15    1
    13    15    16    1
    14    16    17    1
    15    17    18    1
    16    18    19    1
    17    19    20    1
    18    20    21    1
    19    21    22    1
    20    22    23    1
    21    23    24    1
    22    11    12   ar
    23     4     5   ar
    24     5     6    1
    25     5     7   ar
    26    26    29    1
    27    29    30   ar
    28    30    31   ar
    29    31    32   ar
    30    32    33   ar
    31    33    34   ar
    32     7     1   ar
    33    34    29   ar
    34    12     8   ar
    35    24    19    1
    36    27    28    1
    37    13    14    1
@<TRIPOS>MOLECULE
*****
 34 37 0 0 0
SMALL
GASTEIGER

@<TRIPOS>ATOM
      1 C         142.8454  138.7202  157.7252 C.ar    1  UNL1        0.0528
      2 C         142.9439  139.8285  156.7193 C.ar    1  UNL1        0.0150
      3 C         142.6205  141.2370  157.1213 C.ar    1  UNL1        0.0082
      4 C         142.1986  141.5371  158.5291 C.ar    1  UNL1        0.0827
      5 C         142.1002  140.4288  159.5350 C.ar    1  UNL1        0.1459
      6 F         141.6784  140.7289  160.9428 F       1  UNL1       -0.2040
      7 C         142.4236  139.0203  159.1330 C.ar    1  UNL1        0.0445
      8 C         141.8753  142.9457  158.9310 C.ar    1  UNL1        0.2534
      9 N         142.7242  144.1543  158.6691 N.ar    1  UNL1       -0.1057
     10 N         142.0199  145.3485  159.2416 N.ar    1  UNL1       -0.0923
     11 C         140.7355  144.8779  159.8574 C.ar    1  UNL1        0.3086
     12 O         140.6462  143.3929  159.6654 O.2     1  UNL1       -0.4048
     13 N         139.7190  145.7408  160.5445 N.pl3   1  UNL1       -0.2871
     14 H         138.9318  146.0635  160.0491 H       1  UNL1        0.1512
     15 C         139.9020  146.1121  161.9862 C.3     1  UNL1        0.0912
     16 C         140.4874  145.1206  162.9476 C.3     1  UNL1        0.0227
     17 C         141.8583  145.3443  163.5138 C.3     1  UNL1        0.0191
     18 C         142.5436  144.2482  164.2744 C.3     1  UNL1        0.0723
     19 N         143.5877  143.4075  163.6012 N.3     1  UNL1       -0.2685
     20 C         144.5062  142.5523  164.4228 C.3     1  UNL1        0.1046
     21 C         145.5504  141.7115  163.7498 C.3     1  UNL1        0.1595
     22 O         145.6760  141.7260  162.2551 O.3     1  UNL1       -0.3508
     23 C         144.7574  142.5812  161.4336 C.3     1  UNL1        0.1595
     24 C         143.7133  143.4219  162.1066 C.3     1  UNL1        0.1046
     25 O         140.7364  136.9977  156.4661 O.2     1  UNL1       -0.2698
     26 C         142.1143  136.4505  156.6938 C.2     1  UNL1        0.2495
     27 N         143.1688  137.3116  157.3233 N.am    1  UNL1       -0.2803
     28 H         144.0732  136.9524  157.4727 H       1  UNL1        0.1552
     29 C         142.4377  135.0419  156.2919 C.ar    1  UNL1        0.0537
     30 C         142.0053  134.5264  154.9512 C.ar    1  UNL1        0.0045
     31 C         142.3287  133.1180  154.5494 C.ar    1  UNL1        0.0001
     32 C         143.0845  132.2249  155.4881 C.ar    1  UNL1        0.0000
     33 C         143.5169  132.7404  156.8288 C.ar    1  UNL1        0.0001
     34 C         143.1935  134.1489  157.2306 C.ar    1  UNL1        0.0045
@<TRIPOS>BOND
     1    25    26    2
     2    26    27   am
     3    27     1    1
     4     1     2   ar
     5     2     3   ar
     6     3     4   ar
     7     4     8    1
     8     8     9   ar
     9     9    10   ar
    10    10    11   ar
    11    11    13    1
    12    13    15    1
    13    15    16    1
    14    16    17    1
    15    17    18    1
    16    18    19    1
    17    19    20    1
    18    20    21    1
    19    21    22    1
    20    22    23    1
    21    23    24    1
    22    11    12   ar
    23     4     5   ar
    24     5     6    1
    25     5     7   ar
    26    26    29    1
    27    29    30   ar
    28    30    31   ar
    29    31    32   ar
    30    32    33   ar
    31    33    34   ar
    32     7     1   ar
    33    34    29   ar
    34    12     8   ar
    35    24    19    1
    36    27    28    1
    37    13    14    1
@<TRIPOS>MOLECULE
*****
 34 37 0 0 0
SMALL
GASTEIGER

@<TRIPOS>ATOM
      1 C         142.5661  138.6085  159.3880 C.ar    1  UNL1        0.0528
      2 C         141.3103  139.4254  159.3132 C.ar    1  UNL1        0.0150
      3 C         141.2315  140.7460  160.0202 C.ar    1  UNL1        0.0082
      4 C         142.4085  141.2497  160.8018 C.ar    1  UNL1        0.0827
      5 C         143.6643  140.4328  160.8765 C.ar    1  UNL1        0.1459
      6 F         144.8413  140.9365  161.6582 F       1  UNL1       -0.2040
      7 C         143.7431  139.1122  160.1696 C.ar    1  UNL1        0.0445
      8 C         142.3297  142.5704  161.5088 C.ar    1  UNL1        0.2534
      9 N         143.2738  143.7226  161.3323 N.ar    1  UNL1       -0.1057
     10 N         142.8205  144.8350  162.2307 N.ar    1  UNL1       -0.0923
     11 C         141.5963  144.3702  162.9624 C.ar    1  UNL1        0.3086
     12 O         141.2930  142.9706  162.5162 O.2     1  UNL1       -0.4048
     13 N         140.8130  145.1655  163.9644 N.pl3   1  UNL1       -0.2871
     14 H         141.2429  145.9067  164.4491 H       1  UNL1        0.1512
     15 C         139.3746  144.8314  164.2279 C.3     1  UNL1        0.0912
     16 C         139.0119  143.5140  164.8467 C.3     1  UNL1        0.0227
     17 C         137.7289  142.8354  164.4680 C.3     1  UNL1        0.0191
     18 C         137.6429  142.0527  163.1914 C.3     1  UNL1        0.0723
     19 N         137.9752  140.5900  163.1845 N.3     1  UNL1       -0.2685
     20 C         138.4159  139.9151  164.4495 C.3     1  UNL1        0.1046
     21 C         138.7483  138.4524  164.4428 C.3     1  UNL1        0.1595
     22 O         138.6399  137.6645  163.1710 O.3     1  UNL1       -0.3508
     23 C         138.1992  138.3395  161.9060 C.3     1  UNL1        0.1595
     24 C         137.8669  139.8021  161.9127 C.3     1  UNL1        0.1046
     25 O         143.0462  138.5178  156.4280 O.2     1  UNL1       -0.2698
     26 C         142.8850  137.2425  157.2011 C.2     1  UNL1        0.2495
     27 N         142.6450  137.2878  158.6810 N.am    1  UNL1       -0.2803
     28 H         142.5392  136.4508  159.1884 H       1  UNL1        0.1552
     29 C         142.9638  135.9218  156.4941 C.ar    1  UNL1        0.0537
     30 C         143.3614  134.6889  157.2503 C.ar    1  UNL1        0.0045
     31 C         143.4403  133.3684  156.5434 C.ar    1  UNL1        0.0001
     32 C         143.1215  133.2807  155.0802 C.ar    1  UNL1        0.0000
     33 C         142.7238  134.5136  154.3241 C.ar    1  UNL1        0.0001
     34 C         142.6450  135.8341  155.0310 C.ar    1  UNL1        0.0045
@<TRIPOS>BOND
     1    25    26    2
     2    26    27   am
     3    27     1    1
     4     1     2   ar
     5     2     3   ar
     6     3     4   ar
     7     4     8    1
     8     8     9   ar
     9     9    10   ar
    10    10    11   ar
    11    11    13    1
    12    13    15    1
    13    15    16    1
    14    16    17    1
    15    17    18    1
    16    18    19    1
    17    19    20    1
    18    20    21    1
    19    21    22    1
    20    22    23    1
    21    23    24    1
    22    11    12   ar
    23     4     5   ar
    24     5     6    1
    25     5     7   ar
    26    26    29    1
    27    29    30   ar
    28    30    31   ar
    29    31    32   ar
    30    32    33   ar
    31    33    34   ar
    32     7     1   ar
    33    34    29   ar
    34    12     8   ar
    35    24    19    1
    36    27    28    1
    37    13    14    1
