@<TRIPOS>MOLECULE
*****
 34 39 0 0 0
SMALL
GASTEIGER

@<TRIPOS>ATOM
      1 C         140.6861  142.2440  163.5774 C.ar    1  UNL1        0.2358
      2 N         140.9873  142.3423  165.0436 N.ar    1  UNL1       -0.1935
      3 C         140.1810  141.2955  165.7536 C.ar    1  UNL1        0.1668
      4 C         140.0716  140.9246  167.2029 C.ar    1  UNL1        0.0382
      5 C         139.1626  139.8086  167.6250 C.ar    1  UNL1        0.0047
      6 C         138.3631  139.0634  166.5977 C.ar    1  UNL1        0.0208
      7 C         138.4725  139.4342  165.1484 C.ar    1  UNL1        0.1022
      8 N         139.3815  140.5503  164.7263 N.ar    1  UNL1       -0.2081
      9 N         139.6936  141.1365  163.3814 N.ar    1  UNL1       -0.1284
     10 C         140.8712  141.6699  168.2302 C.ar    1  UNL1        0.0328
     11 C         140.3334  142.9380  168.8241 C.ar    1  UNL1        0.0048
     12 C         141.1330  143.6833  169.8514 C.ar    1  UNL1        0.0321
     13 C         142.4704  143.1604  170.2848 C.ar    1  UNL1        0.1696
     14 F         143.2700  143.9056  171.3120 F       1  UNL1       -0.2017
     15 C         143.0082  141.8922  169.6909 C.ar    1  UNL1        0.1946
     16 F         144.3457  141.3694  170.1243 F       1  UNL1       -0.1994
     17 C         142.2086  141.1470  168.6637 C.ar    1  UNL1        0.1697
     18 F         142.7465  139.8789  168.0698 F       1  UNL1       -0.2017
     19 N         141.2740  143.1025  162.4970 N.pl3   1  UNL1       -0.3033
     20 H         140.8534  143.9628  162.2682 H       1  UNL1        0.1496
     21 N         141.3368  143.0005  162.3956 N.pl3   1  UNL1       -0.2869
     22 C         142.6365  143.7225  162.5946 C.3     1  UNL1        0.0943
     23 C         143.8653  143.2703  161.8627 C.3     1  UNL1        0.0379
     24 C         144.7894  142.5020  160.9651 C.3     1  UNL1        0.0035
     25 C         143.9982  141.4073  160.3128 C.3     1  UNL1        0.0035
     26 C         142.5849  141.4990  160.8073 C.3     1  UNL1        0.0379
     27 C         141.2659  141.8264  161.4647 C.3     1  UNL1        0.0943
     28 C         142.5028  142.6504  161.7651 C.3     1  UNL1        0.0750
     29 C         138.1583  145.1757  166.0074 C.3     1  UNL1        0.0744
     30 C         138.6470  144.4525  164.7876 C.ar    1  UNL1        0.1494
     31 N         137.7871  143.8444  163.7195 N.ar    1  UNL1       -0.1917
     32 S         138.6901  143.2264  162.6935 S.2     1  UNL1        0.0491
     33 C         140.1080  143.4527  163.1274 C.ar    1  UNL1        0.1818
     34 N         140.0813  144.2104  164.4217 N.ar    1  UNL1       -0.2078
@<TRIPOS>BOND
     1    29    30    1
     2    30    31   ar
     3    31    32   ar
     4    32    33   ar
     5    33    21    1
     6    21    22    1
     7    22    23    1
     8    23    24    1
     9    24    25    1
    10    25    26    1
    11    26    27    1
    12    26    28    1
    13    28    19    1
    14    19     1    1
    15     1     2   ar
    16     2     3   ar
    17     3     4   ar
    18     4    10    1
    19    10    11   ar
    20    11    12   ar
    21    12    13   ar
    22    13    14    1
    23    13    15   ar
    24    15    16    1
    25    15    17   ar
    26    17    18    1
    27     4     5   ar
    28     5     6   ar
    29     6     7   ar
    30     7     8   ar
    31     8     9   ar
    32    33    34   ar
    33    34    30   ar
    34    27    21    1
    35     9     1   ar
    36    28    23    1
    37     8     3   ar
    38    17    10   ar
    39    19    20    1
@<TRIPOS>MOLECULE
*****
 34 39 0 0 0
SMALL
GASTEIGER

@<TRIPOS>ATOM
      1 C         140.2305  141.4782  163.8190 C.ar    1  UNL1        0.2358
      2 N         140.4848  141.4664  165.2973 N.ar    1  UNL1       -0.1935
      3 C         141.6228  140.5263  165.5643 C.ar    1  UNL1        0.1668
      4 C         142.3082  140.1151  166.8337 C.ar    1  UNL1        0.0382
      5 C         143.4425  139.1346  166.7898 C.ar    1  UNL1        0.0047
      6 C         143.8915  138.5654  165.4767 C.ar    1  UNL1        0.0208
      7 C         143.2061  138.9767  164.2074 C.ar    1  UNL1        0.1022
      8 N         142.0718  139.9571  164.2512 N.ar    1  UNL1       -0.2081
      9 N         141.2113  140.5454  163.1725 N.ar    1  UNL1       -0.1284
     10 C         141.8591  140.6844  168.1468 C.ar    1  UNL1        0.0328
     11 C         140.7838  139.9961  168.9342 C.ar    1  UNL1        0.0048
     12 C         140.3348  140.5654  170.2474 C.ar    1  UNL1        0.0321
     13 C         140.9611  141.8229  170.7731 C.ar    1  UNL1        0.1696
     14 F         140.5121  142.3922  172.0862 F       1  UNL1       -0.2017
     15 C         142.0365  142.5111  169.9857 C.ar    1  UNL1        0.1946
     16 F         142.6628  143.7686  170.5114 F       1  UNL1       -0.1994
     17 C         142.4855  141.9419  168.6726 C.ar    1  UNL1        0.1697
     18 F         143.5609  142.6301  167.8851 F       1  UNL1       -0.2017
     19 N         139.1799  142.2817  163.1114 N.pl3   1  UNL1       -0.3033
     20 H         138.2562  141.9455  163.0577 H       1  UNL1        0.1496
     21 N         139.2540  142.3562  162.9950 N.pl3   1  UNL1       -0.2869
     22 C         138.7811  143.6360  163.6184 C.3     1  UNL1        0.0943
     23 C         139.1379  144.9517  162.9926 C.3     1  UNL1        0.0379
     24 C         139.7097  145.9812  162.0636 C.3     1  UNL1        0.0035
     25 C         140.4618  145.2632  160.9825 C.3     1  UNL1        0.0035
     26 C         140.3549  143.7899  161.2435 C.3     1  UNL1        0.0379
     27 C         140.0839  142.3923  161.7459 C.3     1  UNL1        0.0943
     28 C         139.5367  143.5974  162.4858 C.3     1  UNL1        0.0750
     29 C         137.8283  138.6955  166.5229 C.3     1  UNL1        0.0744
     30 C         138.2419  139.3578  165.2422 C.ar    1  UNL1        0.1494
     31 N         138.4544  138.6736  163.9244 N.ar    1  UNL1       -0.1917
     32 S         138.8595  139.7136  162.9222 S.2     1  UNL1        0.0491
     33 C         138.8972  141.0405  163.6206 C.ar    1  UNL1        0.1818
     34 N         138.5156  140.8206  165.0545 N.ar    1  UNL1       -0.2078
@<TRIPOS>BOND
     1    29    30    1
     2    30    31   ar
     3    31    32   ar
     4    32    33   ar
     5    33    21    1
     6    21    22    1
     7    22    23    1
     8    23    24    1
     9    24    25    1
    10    25    26    1
    11    26    27    1
    12    26    28    1
    13    28    19    1
    14    19     1    1
    15     1     2   ar
    16     2     3   ar
    17     3     4   ar
    18     4    10    1
    19    10    11   ar
    20    11    12   ar
    21    12    13   ar
    22    13    14    1
    23    13    15   ar
    24    15    16    1
    25    15    17   ar
    26    17    18    1
    27     4     5   ar
    28     5     6   ar
    29     6     7   ar
    30     7     8   ar
    31     8     9   ar
    32    33    34   ar
    33    34    30   ar
    34    27    21    1
    35     9     1   ar
    36    28    23    1
    37     8     3   ar
    38    17    10   ar
    39    19    20    1
@<TRIPOS>MOLECULE
*****
 34 39 0 0 0
SMALL
GASTEIGER

@<TRIPOS>ATOM
      1 C         140.1194  141.9135  163.3674 C.ar    1  UNL1        0.2358
      2 N         140.3551  141.5877  164.8125 N.ar    1  UNL1       -0.1935
      3 C         141.6713  142.1851  165.2137 C.ar    1  UNL1        0.1668
      4 C         142.4183  142.1861  166.5144 C.ar    1  UNL1        0.0382
      5 C         143.7430  142.8820  166.6181 C.ar    1  UNL1        0.0047
      6 C         144.3207  143.5769  165.4209 C.ar    1  UNL1        0.0208
      7 C         143.5737  143.5760  164.1201 C.ar    1  UNL1        0.1022
      8 N         142.2490  142.8801  164.0165 N.ar    1  UNL1       -0.2081
      9 N         141.2899  142.7122  162.8755 N.ar    1  UNL1       -0.1284
     10 C         141.8405  141.4910  167.7116 C.ar    1  UNL1        0.0328
     11 C         142.4392  140.2024  168.1922 C.ar    1  UNL1        0.0048
     12 C         141.8614  139.5074  169.3894 C.ar    1  UNL1        0.0321
     13 C         140.6849  140.1010  170.1059 C.ar    1  UNL1        0.1696
     14 F         140.1071  139.4061  171.3030 F       1  UNL1       -0.2017
     15 C         140.0861  141.3897  169.6252 C.ar    1  UNL1        0.1946
     16 F         138.9096  141.9833  170.3417 F       1  UNL1       -0.1994
     17 C         140.6639  142.0847  168.4281 C.ar    1  UNL1        0.1697
     18 F         140.0652  143.3733  167.9474 F       1  UNL1       -0.2017
     19 N         138.9233  141.5111  162.5565 N.pl3   1  UNL1       -0.3033
     20 H         138.1562  142.1227  162.4741 H       1  UNL1        0.1496
     21 N         138.9757  141.4232  162.4376 N.pl3   1  UNL1       -0.2869
     22 C         138.1292  140.3142  162.9886 C.3     1  UNL1        0.0943
     23 C         138.1019  138.9801  162.3033 C.3     1  UNL1        0.0379
     24 C         138.3731  137.8690  161.3328 C.3     1  UNL1        0.0035
     25 C         139.3347  138.3794  160.3009 C.3     1  UNL1        0.0035
     26 C         139.6579  139.8059  160.6337 C.3     1  UNL1        0.0379
     27 C         139.7948  141.1981  161.2013 C.3     1  UNL1        0.0943
     28 C         138.8960  140.1771  161.8713 C.3     1  UNL1        0.0750
     29 C         138.4749  145.2043  166.0889 C.3     1  UNL1        0.0744
     30 C         138.7728  144.4952  164.8012 C.ar    1  UNL1        0.1494
     31 N         139.3173  145.1250  163.5534 N.ar    1  UNL1       -0.1917
     32 S         139.4596  144.0508  162.5162 S.2     1  UNL1        0.0491
     33 C         139.0030  142.7572  163.1229 C.ar    1  UNL1        0.1818
     34 N         138.5786  143.0319  164.5351 N.ar    1  UNL1       -0.2078
@<TRIPOS>BOND
     1    29    30    1
     2    30    31   ar
     3    31    32   ar
     4    32    33   ar
     5    33    21    1
     6    21    22    1
     7    22    23    1
     8    23    24    1
     9    24    25    1
    10    25    26    1
    11    26    27    1
    12    26    28    1
    13    28    19    1
    14    19     1    1
    15     1     2   ar
    16     2     3   ar
    17     3     4   ar
    18     4    10    1
    19    10    11   ar
    20    11    12   ar
    21    12    13   ar
    22    13    14    1
    23    13    15   ar
    24    15    16    1
    25    15    17   ar
    26    17    18    1
    27     4     5   ar
    28     5     6   ar
    29     6     7   ar
    30     7     8   ar
    31     8     9   ar
    32    33    34   ar
    33    34    30   ar
    34    27    21    1
    35     9     1   ar
    36    28    23    1
    37     8     3   ar
    38    17    10   ar
    39    19    20    1
@<TRIPOS>MOLECULE
*****
 34 39 0 0 0
SMALL
GASTEIGER

@<TRIPOS>ATOM
      1 C         140.1615  141.8065  163.3549 C.ar    1  UNL1        0.2358
      2 N         140.2405  141.8653  164.8516 N.ar    1  UNL1       -0.1935
      3 C         141.3645  140.9748  165.2918 C.ar    1  UNL1        0.1668
      4 C         141.9069  140.6399  166.6496 C.ar    1  UNL1        0.0382
      5 C         143.0649  139.6959  166.7827 C.ar    1  UNL1        0.0047
      6 C         143.6805  139.0867  165.5580 C.ar    1  UNL1        0.0208
      7 C         143.1381  139.4216  164.2002 C.ar    1  UNL1        0.1022
      8 N         141.9801  140.3656  164.0671 N.ar    1  UNL1       -0.2081
      9 N         141.2366  140.8797  162.8700 N.ar    1  UNL1       -0.1284
     10 C         141.2913  141.2491  167.8743 C.ar    1  UNL1        0.0328
     11 C         141.9297  142.4430  168.5200 C.ar    1  UNL1        0.0048
     12 C         141.3141  143.0522  169.7447 C.ar    1  UNL1        0.0321
     13 C         140.0600  142.4674  170.3238 C.ar    1  UNL1        0.1696
     14 F         139.4443  143.0766  171.5484 F       1  UNL1       -0.2017
     15 C         139.4215  141.2735  169.6780 C.ar    1  UNL1        0.1946
     16 F         138.1674  140.6887  170.2571 F       1  UNL1       -0.1994
     17 C         140.0372  140.6643  168.4534 C.ar    1  UNL1        0.1697
     18 F         139.3987  139.4703  167.8076 F       1  UNL1       -0.2017
     19 N         139.1797  142.5449  162.4941 N.pl3   1  UNL1       -0.3033
     20 H         138.3059  142.1415  162.2868 H       1  UNL1        0.1496
     21 N         139.1908  142.6990  162.5216 N.pl3   1  UNL1       -0.2869
     22 C         139.6623  142.8379  161.1044 C.3     1  UNL1        0.0943
     23 C         140.0119  144.1910  160.5594 C.3     1  UNL1        0.0379
     24 C         140.2385  145.6697  160.4495 C.3     1  UNL1        0.0035
     25 C         139.8959  146.2906  161.7713 C.3     1  UNL1        0.0035
     26 C         139.4575  145.1956  162.6981 C.3     1  UNL1        0.0379
     27 C         139.0689  143.9133  163.3938 C.3     1  UNL1        0.0943
     28 C         139.5292  143.8980  161.9491 C.3     1  UNL1        0.0750
     29 C         138.7635  137.4654  163.0754 C.3     1  UNL1        0.0744
     30 C         138.6449  138.9404  163.3211 C.ar    1  UNL1        0.1494
     31 N         137.9618  139.5874  164.4893 N.ar    1  UNL1       -0.1917
     32 S         138.0832  141.0742  164.3320 S.2     1  UNL1        0.0491
     33 C         138.8413  141.3460  163.0665 C.ar    1  UNL1        0.1818
     34 N         139.1884  140.0272  162.4418 N.ar    1  UNL1       -0.2078
@<TRIPOS>BOND
     1    29    30    1
     2    30    31   ar
     3    31    32   ar
     4    32    33   ar
     5    33    21    1
     6    21    22    1
     7    22    23    1
     8    23    24    1
     9    24    25    1
    10    25    26    1
    11    26    27    1
    12    26    28    1
    13    28    19    1
    14    19     1    1
    15     1     2   ar
    16     2     3   ar
    17     3     4   ar
    18     4    10    1
    19    10    11   ar
    20    11    12   ar
    21    12    13   ar
    22    13    14    1
    23    13    15   ar
    24    15    16    1
    25    15    17   ar
    26    17    18    1
    27     4     5   ar
    28     5     6   ar
    29     6     7   ar
    30     7     8   ar
    31     8     9   ar
    32    33    34   ar
    33    34    30   ar
    34    27    21    1
    35     9     1   ar
    36    28    23    1
    37     8     3   ar
    38    17    10   ar
    39    19    20    1
@<TRIPOS>MOLECULE
*****
 34 39 0 0 0
SMALL
GASTEIGER

@<TRIPOS>ATOM
      1 C         140.7801  141.5491  163.7347 C.ar    1  UNL1        0.2358
      2 N         141.0590  141.7896  165.1887 N.ar    1  UNL1       -0.1935
      3 C         140.1466  140.9070  165.9879 C.ar    1  UNL1        0.1668
      4 C         139.9743  140.7175  167.4659 C.ar    1  UNL1        0.0382
      5 C         138.9593  139.7421  167.9837 C.ar    1  UNL1        0.0047
      6 C         138.1164  138.9562  167.0235 C.ar    1  UNL1        0.0208
      7 C         138.2887  139.1457  165.5455 C.ar    1  UNL1        0.1022
      8 N         139.3037  140.1211  165.0277 N.ar    1  UNL1       -0.2081
      9 N         139.6952  140.5180  163.6352 N.ar    1  UNL1       -0.1284
     10 C         140.8172  141.5035  168.4260 C.ar    1  UNL1        0.0328
     11 C         140.3513  142.8451  168.9085 C.ar    1  UNL1        0.0048
     12 C         141.1942  143.6311  169.8687 C.ar    1  UNL1        0.0321
     13 C         142.5030  143.0753  170.3464 C.ar    1  UNL1        0.1696
     14 F         143.3459  143.8611  171.3065 F       1  UNL1       -0.2017
     15 C         142.9689  141.7335  169.8638 C.ar    1  UNL1        0.1946
     16 F         144.2777  141.1778  170.3415 F       1  UNL1       -0.1994
     17 C         142.1260  140.9477  168.9037 C.ar    1  UNL1        0.1697
     18 F         142.5919  139.6059  168.4211 F       1  UNL1       -0.2017
     19 N         141.4656  142.2217  162.5823 N.pl3   1  UNL1       -0.3033
     20 H         142.2514  141.8016  162.1638 H       1  UNL1        0.1496
     21 N         141.4424  142.3743  162.6109 N.pl3   1  UNL1       -0.2869
     22 C         140.8559  142.4625  161.2332 C.3     1  UNL1        0.0943
     23 C         140.3441  143.7753  160.7186 C.3     1  UNL1        0.0379
     24 C         139.9753  145.2265  160.6290 C.3     1  UNL1        0.0035
     25 C         140.3571  145.8825  161.9228 C.3     1  UNL1        0.0035
     26 C         140.9619  144.8367  162.8120 C.3     1  UNL1        0.0379
     27 C         141.5172  143.5988  163.4741 C.3     1  UNL1        0.0943
     28 C         140.9538  143.5344  162.0678 C.3     1  UNL1        0.0750
     29 C         144.0027  138.7621  165.4879 C.3     1  UNL1        0.0744
     30 C         143.1310  139.4012  164.4479 C.ar    1  UNL1        0.1494
     31 N         142.3525  138.6817  163.3867 N.ar    1  UNL1       -0.1917
     32 S         141.6251  139.7079  162.5694 S.2     1  UNL1        0.0491
     33 C         141.9542  141.0616  163.1255 C.ar    1  UNL1        0.1818
     34 N         142.8849  140.8720  164.2864 N.ar    1  UNL1       -0.2078
@<TRIPOS>BOND
     1    29    30    1
     2    30    31   ar
     3    31    32   ar
     4    32    33   ar
     5    33    21    1
     6    21    22    1
     7    22    23    1
     8    23    24    1
     9    24    25    1
    10    25    26    1
    11    26    27    1
    12    26    28    1
    13    28    19    1
    14    19     1    1
    15     1     2   ar
    16     2     3   ar
    17     3     4   ar
    18     4    10    1
    19    10    11   ar
    20    11    12   ar
    21    12    13   ar
    22    13    14    1
    23    13    15   ar
    24    15    16    1
    25    15    17   ar
    26    17    18    1
    27     4     5   ar
    28     5     6   ar
    29     6     7   ar
    30     7     8   ar
    31     8     9   ar
    32    33    34   ar
    33    34    30   ar
    34    27    21    1
    35     9     1   ar
    36    28    23    1
    37     8     3   ar
    38    17    10   ar
    39    19    20    1
@<TRIPOS>MOLECULE
*****
 34 39 0 0 0
SMALL
GASTEIGER

@<TRIPOS>ATOM
      1 C         141.6430  141.7667  162.3748 C.ar    1  UNL1        0.2358
      2 N         141.4848  141.3158  163.7966 N.ar    1  UNL1       -0.1935
      3 C         140.8223  139.9700  163.7852 C.ar    1  UNL1        0.1668
      4 C         140.4154  139.0422  164.8913 C.ar    1  UNL1        0.0382
      5 C         139.7572  137.7335  164.5686 C.ar    1  UNL1        0.0047
      6 C         139.5060  137.3527  163.1397 C.ar    1  UNL1        0.0208
      7 C         139.9129  138.2805  162.0335 C.ar    1  UNL1        0.1022
      8 N         140.5711  139.5892  162.3563 N.ar    1  UNL1       -0.2081
      9 N         141.0783  140.6996  161.4846 N.ar    1  UNL1       -0.1284
     10 C         140.6666  139.4231  166.3203 C.ar    1  UNL1        0.0328
     11 C         142.0726  139.5296  166.8320 C.ar    1  UNL1        0.0048
     12 C         142.3238  139.9105  168.2610 C.ar    1  UNL1        0.0321
     13 C         141.1691  140.1849  169.1781 C.ar    1  UNL1        0.1696
     14 F         141.4203  140.5657  170.6070 F       1  UNL1       -0.2017
     15 C         139.7631  140.0784  168.6664 C.ar    1  UNL1        0.1946
     16 F         138.6083  140.3527  169.5835 F       1  UNL1       -0.1994
     17 C         139.5119  139.6975  167.2375 C.ar    1  UNL1        0.1697
     18 F         138.1058  139.5910  166.7257 F       1  UNL1       -0.2017
     19 N         142.2579  143.0580  161.9225 N.pl3   1  UNL1       -0.3033
     20 H         143.2312  143.1189  161.7873 H       1  UNL1        0.1496
     21 N         142.1785  143.1780  161.9849 N.pl3   1  UNL1       -0.2869
     22 C         141.7944  143.5506  160.5836 C.3     1  UNL1        0.0943
     23 C         140.9264  144.7490  160.3374 C.3     1  UNL1        0.0379
     24 C         140.0831  145.9695  160.5592 C.3     1  UNL1        0.0035
     25 C         140.0255  146.2311  162.0351 C.3     1  UNL1        0.0035
     26 C         140.8332  145.1723  162.7254 C.3     1  UNL1        0.0379
     27 C         141.6946  144.0038  163.1400 C.3     1  UNL1        0.0943
     28 C         141.3900  144.2563  161.6762 C.3     1  UNL1        0.0750
     29 C         145.1478  139.5385  164.3968 C.3     1  UNL1        0.0744
     30 C         144.4113  140.3068  163.3398 C.ar    1  UNL1        0.1494
     31 N         144.3528  139.9646  161.8806 N.ar    1  UNL1       -0.1917
     32 S         143.5093  140.9985  161.1954 S.2     1  UNL1        0.0491
     33 C         143.0464  141.9797  162.2312 C.ar    1  UNL1        0.1818
     34 N         143.6039  141.5522  163.5566 N.ar    1  UNL1       -0.2078
@<TRIPOS>BOND
     1    29    30    1
     2    30    31   ar
     3    31    32   ar
     4    32    33   ar
     5    33    21    1
     6    21    22    1
     7    22    23    1
     8    23    24    1
     9    24    25    1
    10    25    26    1
    11    26    27    1
    12    26    28    1
    13    28    19    1
    14    19     1    1
    15     1     2   ar
    16     2     3   ar
    17     3     4   ar
    18     4    10    1
    19    10    11   ar
    20    11    12   ar
    21    12    13   ar
    22    13    14    1
    23    13    15   ar
    24    15    16    1
    25    15    17   ar
    26    17    18    1
    27     4     5   ar
    28     5     6   ar
    29     6     7   ar
    30     7     8   ar
    31     8     9   ar
    32    33    34   ar
    33    34    30   ar
    34    27    21    1
    35     9     1   ar
    36    28    23    1
    37     8     3   ar
    38    17    10   ar
    39    19    20    1
@<TRIPOS>MOLECULE
*****
 34 39 0 0 0
SMALL
GASTEIGER

@<TRIPOS>ATOM
      1 C         141.8447  140.1378  165.6484 C.ar    1  UNL1        0.2358
      2 N         141.6225  141.3510  164.7949 N.ar    1  UNL1       -0.1935
      3 C         142.9190  141.6857  164.1186 C.ar    1  UNL1        0.1668
      4 C         143.2999  142.7769  163.1624 C.ar    1  UNL1        0.0382
      5 C         144.7040  142.8616  162.6418 C.ar    1  UNL1        0.0047
      6 C         145.7274  141.8552  163.0774 C.ar    1  UNL1        0.0208
      7 C         145.3466  140.7640  164.0336 C.ar    1  UNL1        0.1022
      8 N         143.9424  140.6793  164.5542 N.ar    1  UNL1       -0.2081
      9 N         143.2784  139.7226  165.4997 N.ar    1  UNL1       -0.1284
     10 C         142.2764  143.7833  162.7268 C.ar    1  UNL1        0.0328
     11 C         141.8458  144.8701  163.6667 C.ar    1  UNL1        0.0048
     12 C         140.8224  145.8766  163.2311 C.ar    1  UNL1        0.0321
     13 C         140.2296  145.7962  161.8555 C.ar    1  UNL1        0.1696
     14 F         139.2062  146.8026  161.4199 F       1  UNL1       -0.2017
     15 C         140.6602  144.7093  160.9156 C.ar    1  UNL1        0.1946
     16 F         140.0674  144.6289  159.5401 F       1  UNL1       -0.1994
     17 C         141.6836  143.7029  161.3512 C.ar    1  UNL1        0.1697
     18 F         142.1142  142.6161  160.4113 F       1  UNL1       -0.2017
     19 N         140.8141  139.4588  166.5011 N.pl3   1  UNL1       -0.3033
     20 H         140.2764  138.7221  166.1305 H       1  UNL1        0.1496
     21 N         140.8792  139.4891  166.6406 N.pl3   1  UNL1       -0.2869
     22 C         139.5018  139.8416  167.1187 C.3     1  UNL1        0.0943
     23 C         139.2906  140.2852  168.5360 C.3     1  UNL1        0.0379
     24 C         139.5434  140.6604  169.9662 C.3     1  UNL1        0.0035
     25 C         141.0118  140.5094  170.2323 C.3     1  UNL1        0.0035
     26 C         141.6666  140.0409  168.9667 C.3     1  UNL1        0.0379
     27 C         142.0453  139.5802  167.5798 C.3     1  UNL1        0.0943
     28 C         140.6028  139.9024  167.9183 C.3     1  UNL1        0.0750
     29 C         140.6174  139.2088  161.3744 C.3     1  UNL1        0.0744
     30 C         140.9702  138.9167  162.8028 C.ar    1  UNL1        0.1494
     31 N         141.8612  137.8094  163.2822 N.ar    1  UNL1       -0.1917
     32 S         141.9356  137.8890  164.7782 S.2     1  UNL1        0.0491
     33 C         141.0905  139.0456  165.2233 C.ar    1  UNL1        0.1818
     34 N         140.4939  139.6808  164.0024 N.ar    1  UNL1       -0.2078
@<TRIPOS>BOND
     1    29    30    1
     2    30    31   ar
     3    31    32   ar
     4    32    33   ar
     5    33    21    1
     6    21    22    1
     7    22    23    1
     8    23    24    1
     9    24    25    1
    10    25    26    1
    11    26    27    1
    12    26    28    1
    13    28    19    1
    14    19     1    1
    15     1     2   ar
    16     2     3   ar
    17     3     4   ar
    18     4    10    1
    19    10    11   ar
    20    11    12   ar
    21    12    13   ar
    22    13    14    1
    23    13    15   ar
    24    15    16    1
    25    15    17   ar
    26    17    18    1
    27     4     5   ar
    28     5     6   ar
    29     6     7   ar
    30     7     8   ar
    31     8     9   ar
    32    33    34   ar
    33    34    30   ar
    34    27    21    1
    35     9     1   ar
    36    28    23    1
    37     8     3   ar
    38    17    10   ar
    39    19    20    1
@<TRIPOS>MOLECULE
*****
 34 39 0 0 0
SMALL
GASTEIGER

@<TRIPOS>ATOM
      1 C         141.7048  139.7677  166.0351 C.ar    1  UNL1        0.2358
      2 N         141.2613  140.7750  165.0159 N.ar    1  UNL1       -0.1935
      3 C         140.8198  140.0309  163.7905 C.ar    1  UNL1        0.1668
      4 C         140.2844  140.4999  162.4701 C.ar    1  UNL1        0.0382
      5 C         139.9196  139.5017  161.4115 C.ar    1  UNL1        0.0047
      6 C         140.0902  138.0347  161.6734 C.ar    1  UNL1        0.0208
      7 C         140.6256  137.5658  162.9938 C.ar    1  UNL1        0.1022
      8 N         140.9904  138.5639  164.0524 N.ar    1  UNL1       -0.2081
      9 N         141.5374  138.4012  165.4395 N.ar    1  UNL1       -0.1284
     10 C         140.1138  141.9670  162.2083 C.ar    1  UNL1        0.0328
     11 C         141.1777  142.7262  161.4724 C.ar    1  UNL1        0.0048
     12 C         141.0071  144.1933  161.2106 C.ar    1  UNL1        0.0321
     13 C         139.7726  144.9012  161.6847 C.ar    1  UNL1        0.1696
     14 F         139.6020  146.3683  161.4229 F       1  UNL1       -0.2017
     15 C         138.7086  144.1419  162.4207 C.ar    1  UNL1        0.1946
     16 F         137.4741  144.8498  162.8949 F       1  UNL1       -0.1994
     17 C         138.8793  142.6749  162.6825 C.ar    1  UNL1        0.1697
     18 F         137.8153  141.9156  163.4184 F       1  UNL1       -0.2017
     19 N         142.2246  140.0732  167.4086 N.pl3   1  UNL1       -0.3033
     20 H         143.1909  140.1929  167.5539 H       1  UNL1        0.1496
     21 N         142.0914  140.1358  167.4632 N.pl3   1  UNL1       -0.2869
     22 C         142.3689  139.4107  168.7466 C.3     1  UNL1        0.0943
     23 C         141.4162  139.5339  169.8987 C.3     1  UNL1        0.0379
     24 C         140.2413  139.9318  170.7421 C.3     1  UNL1        0.0035
     25 C         139.3710  140.8402  169.9253 C.3     1  UNL1        0.0035
     26 C         140.0080  141.0038  168.5771 C.3     1  UNL1        0.0379
     27 C         140.8613  140.9842  167.3319 C.3     1  UNL1        0.0943
     28 C         141.2720  140.1964  168.5607 C.3     1  UNL1        0.0750
     29 C         145.1402  141.3233  163.3190 C.3     1  UNL1        0.0744
     30 C         144.4454  140.5584  164.4062 C.ar    1  UNL1        0.1494
     31 N         144.5744  139.0875  164.6701 N.ar    1  UNL1       -0.1917
     32 S         143.7083  138.7502  165.8474 S.2     1  UNL1        0.0491
     33 C         143.0440  140.0126  166.3111 C.ar    1  UNL1        0.1818
     34 N         143.4996  141.1302  165.4203 N.ar    1  UNL1       -0.2078
@<TRIPOS>BOND
     1    29    30    1
     2    30    31   ar
     3    31    32   ar
     4    32    33   ar
     5    33    21    1
     6    21    22    1
     7    22    23    1
     8    23    24    1
     9    24    25    1
    10    25    26    1
    11    26    27    1
    12    26    28    1
    13    28    19    1
    14    19     1    1
    15     1     2   ar
    16     2     3   ar
    17     3     4   ar
    18     4    10    1
    19    10    11   ar
    20    11    12   ar
    21    12    13   ar
    22    13    14    1
    23    13    15   ar
    24    15    16    1
    25    15    17   ar
    26    17    18    1
    27     4     5   ar
    28     5     6   ar
    29     6     7   ar
    30     7     8   ar
    31     8     9   ar
    32    33    34   ar
    33    34    30   ar
    34    27    21    1
    35     9     1   ar
    36    28    23    1
    37     8     3   ar
    38    17    10   ar
    39    19    20    1
@<TRIPOS>MOLECULE
*****
 34 39 0 0 0
SMALL
GASTEIGER

@<TRIPOS>ATOM
      1 C         141.8748  140.3403  166.1845 C.ar    1  UNL1        0.2358
      2 N         141.2848  141.3430  165.2376 N.ar    1  UNL1       -0.1935
      3 C         140.3044  140.6272  164.3564 C.ar    1  UNL1        0.1668
      4 C         139.4241  141.1046  163.2396 C.ar    1  UNL1        0.0382
      5 C         138.5279  140.1370  162.5250 C.ar    1  UNL1        0.0047
      6 C         138.5120  138.6921  162.9273 C.ar    1  UNL1        0.0208
      7 C         139.3923  138.2147  164.0441 C.ar    1  UNL1        0.1022
      8 N         140.2885  139.1823  164.7586 N.ar    1  UNL1       -0.2081
      9 N         141.2590  139.0050  165.8885 N.ar    1  UNL1       -0.1284
     10 C         139.4401  142.5496  162.8373 C.ar    1  UNL1        0.0328
     11 C         138.3780  143.4806  163.3426 C.ar    1  UNL1        0.0048
     12 C         138.3940  144.9256  162.9403 C.ar    1  UNL1        0.0321
     13 C         139.4721  145.4396  162.0328 C.ar    1  UNL1        0.1696
     14 F         139.4881  146.8845  161.6306 F       1  UNL1       -0.2017
     15 C         140.5342  144.5086  161.5276 C.ar    1  UNL1        0.1946
     16 F         141.6123  145.0226  160.6201 F       1  UNL1       -0.1994
     17 C         140.5182  143.0636  161.9298 C.ar    1  UNL1        0.1697
     18 F         141.5803  142.1326  161.4246 F       1  UNL1       -0.2017
     19 N         142.9005  140.6233  167.2419 N.pl3   1  UNL1       -0.3033
     20 H         143.8589  140.5399  167.0328 H       1  UNL1        0.1496
     21 N         142.8475  140.5775  167.3823 N.pl3   1  UNL1       -0.2869
     22 C         142.8563  142.0262  167.7710 C.3     1  UNL1        0.0943
     23 C         142.4217  142.4363  169.1469 C.3     1  UNL1        0.0379
     24 C         141.9277  142.3825  170.5622 C.3     1  UNL1        0.0035
     25 C         141.6665  140.9465  170.9077 C.3     1  UNL1        0.0035
     26 C         141.9992  140.1126  169.7059 C.3     1  UNL1        0.0379
     27 C         142.4040  139.5388  168.3695 C.3     1  UNL1        0.0943
     28 C         142.4659  141.0334  168.6177 C.3     1  UNL1        0.0750
     29 C         144.3697  140.7726  162.3301 C.3     1  UNL1        0.0744
     30 C         143.9818  140.2571  163.6843 C.ar    1  UNL1        0.1494
     31 N         143.9199  138.8156  164.0944 N.ar    1  UNL1       -0.1917
     32 S         143.4875  138.7602  165.5296 S.2     1  UNL1        0.0491
     33 C         143.2821  140.1674  166.0065 C.ar    1  UNL1        0.1818
     34 N         143.5876  141.0926  164.8660 N.ar    1  UNL1       -0.2078
@<TRIPOS>BOND
     1    29    30    1
     2    30    31   ar
     3    31    32   ar
     4    32    33   ar
     5    33    21    1
     6    21    22    1
     7    22    23    1
     8    23    24    1
     9    24    25    1
    10    25    26    1
    11    26    27    1
    12    26    28    1
    13    28    19    1
    14    19     1    1
    15     1     2   ar
    16     2     3   ar
    17     3     4   ar
    18     4    10    1
    19    10    11   ar
    20    11    12   ar
    21    12    13   ar
    22    13    14    1
    23    13    15   ar
    24    15    16    1
    25    15    17   ar
    26    17    18    1
    27     4     5   ar
    28     5     6   ar
    29     6     7   ar
    30     7     8   ar
    31     8     9   ar
    32    33    34   ar
    33    34    30   ar
    34    27    21    1
    35     9     1   ar
    36    28    23    1
    37     8     3   ar
    38    17    10   ar
    39    19    20    1
