@<TRIPOS>MOLECULE
*****
 33 36 0 0 0
SMALL
GASTEIGER

@<TRIPOS>ATOM
      1 C         139.3911  141.4367  165.0654 C.ar    1  UNL1        0.0537
      2 C         138.4235  140.3156  164.8275 C.ar    1  UNL1        0.0045
      3 C         138.1435  139.3229  165.9166 C.ar    1  UNL1        0.0001
      4 C         138.8311  139.4513  167.2435 C.ar    1  UNL1        0.0000
      5 C         139.7987  140.5725  167.4813 C.ar    1  UNL1        0.0003
      6 C         140.0787  141.5652  166.3923 C.ar    1  UNL1        0.0045
      7 C         140.4864  140.7009  168.8082 C.ar    1  UNL1        0.0043
      8 C         140.0514  141.7582  169.7791 C.ar    1  UNL1        0.0208
      9 C         140.7390  141.8867  171.1060 C.ar    1  UNL1        0.1003
     10 N         141.8616  140.9578  171.4620 N.ar    1  UNL1       -0.2294
     11 C         142.2967  139.9004  170.4911 C.ar    1  UNL1        0.1285
     12 C         141.6090  139.7720  169.1642 C.ar    1  UNL1        0.0341
     13 N         143.4194  138.9715  170.8470 N.pl3   1  UNL1       -0.3181
     14 H         144.1983  139.3090  171.3455 H       1  UNL1        0.1482
     15 C         143.3551  137.5282  170.4435 C.3     1  UNL1        0.0881
     16 C         144.3015  136.5364  171.0523 C.3     1  UNL1        0.0196
     17 C         144.5565  135.1911  171.6648 C.3     1  UNL1        0.0017
     18 C         145.6856  136.1637  171.4941 C.3     1  UNL1        0.0017
     19 N         140.5339  142.0422  162.8121 N.am    1  UNL1       -0.2778
     20 C         139.6712  142.4296  163.9763 C.2     1  UNL1        0.2496
     21 O         139.0884  143.8097  164.0516 O.2     1  UNL1       -0.2698
     22 H         140.9164  141.1364  162.7627 H       1  UNL1        0.1553
     23 C         140.1262  144.8823  158.3794 C.3     1  UNL1        0.1538
     24 N         140.6265  144.3405  159.6855 N.ar    1  UNL1       -0.2459
     25 C         139.9780  143.2588  160.4978 C.ar    1  UNL1        0.1115
     26 C         140.8140  143.0350  161.7230 C.ar    1  UNL1        0.0936
     27 C         141.9790  143.9782  161.6680 C.ar    1  UNL1        0.1686
     28 N         141.8632  144.7850  160.4088 N.ar    1  UNL1       -0.1632
     29 C         143.0686  144.0942  162.6923 C.2     1  UNL1        0.2635
     30 N         143.8746  145.3555  162.7905 N.am    1  UNL1       -0.3240
     31 O         143.3522  142.9490  163.6186 O.2     1  UNL1       -0.2686
     32 H         143.6885  146.1071  162.1825 H       1  UNL1        0.1453
     33 H         144.5897  145.4316  163.4628 H       1  UNL1        0.1453
@<TRIPOS>BOND
     1    23    24    1
     2    24    25   ar
     3    25    26   ar
     4    26    19    1
     5    19    20   am
     6    20    21    2
     7    20     1    1
     8     1     2   ar
     9     2     3   ar
    10     3     4   ar
    11     4     5   ar
    12     5     7    1
    13     7     8   ar
    14     8     9   ar
    15     9    10   ar
    16    10    11   ar
    17    11    13    1
    18    13    15    1
    19    15    16    1
    20    16    17    1
    21    17    18    1
    22    11    12   ar
    23     5     6   ar
    24    26    27   ar
    25    27    29    1
    26    29    30   am
    27    29    31    2
    28    27    28   ar
    29    28    24   ar
    30     6     1   ar
    31    12     7   ar
    32    18    16    1
    33    19    22    1
    34    13    14    1
    35    30    32    1
    36    30    33    1
@<TRIPOS>MOLECULE
*****
 33 36 0 0 0
SMALL
GASTEIGER

@<TRIPOS>ATOM
      1 C         143.5473  141.6119  163.2211 C.ar    1  UNL1        0.0537
      2 C         144.7898  140.7726  163.1811 C.ar    1  UNL1        0.0045
      3 C         145.0109  139.7102  164.2167 C.ar    1  UNL1        0.0001
      4 C         143.9894  139.4872  165.2922 C.ar    1  UNL1        0.0000
      5 C         142.7469  140.3265  165.3322 C.ar    1  UNL1        0.0003
      6 C         142.5259  141.3889  164.2966 C.ar    1  UNL1        0.0045
      7 C         141.7254  140.1035  166.4078 C.ar    1  UNL1        0.0043
      8 C         140.2761  139.9623  166.0480 C.ar    1  UNL1        0.0208
      9 C         139.2546  139.7393  167.1236 C.ar    1  UNL1        0.1003
     10 N         139.6825  139.6575  168.5589 N.ar    1  UNL1       -0.2294
     11 C         141.1318  139.7987  168.9187 C.ar    1  UNL1        0.1285
     12 C         142.1533  140.0218  167.8431 C.ar    1  UNL1        0.0341
     13 N         141.5597  139.7170  170.3541 N.pl3   1  UNL1       -0.3181
     14 H         141.7537  138.8417  170.7608 H       1  UNL1        0.1482
     15 C         141.6921  140.9689  171.1697 C.3     1  UNL1        0.0881
     16 C         141.0636  142.2446  170.6928 C.3     1  UNL1        0.0196
     17 C         139.8456  143.0964  170.4908 C.3     1  UNL1        0.0017
     18 C         141.1931  143.6025  170.0689 C.3     1  UNL1        0.0017
     19 N         142.0610  142.6847  161.3799 N.am    1  UNL1       -0.2778
     20 C         143.3263  142.6743  162.1854 C.2     1  UNL1        0.2496
     21 O         144.3705  143.7264  161.9555 O.2     1  UNL1       -0.2698
     22 H         141.3757  141.9943  161.5308 H       1  UNL1        0.1553
     23 C         142.1600  145.3581  156.8274 C.3     1  UNL1        0.1538
     24 N         141.8855  144.9759  158.2517 N.ar    1  UNL1       -0.2459
     25 C         142.3341  143.7145  158.9283 C.ar    1  UNL1        0.1115
     26 C         141.8399  143.7472  160.3442 C.ar    1  UNL1        0.0936
     27 C         141.0860  145.0286  160.5427 C.ar    1  UNL1        0.1686
     28 N         141.1141  145.7880  159.2495 N.ar    1  UNL1       -0.1632
     29 C         140.4207  145.4726  161.8117 C.2     1  UNL1        0.2635
     30 N         141.2520  145.8538  163.0007 N.am    1  UNL1       -0.3240
     31 O         138.9242  145.5355  161.8917 O.2     1  UNL1       -0.2686
     32 H         142.2342  145.8125  162.9482 H       1  UNL1        0.1453
     33 H         140.8154  146.1452  163.8335 H       1  UNL1        0.1453
@<TRIPOS>BOND
     1    23    24    1
     2    24    25   ar
     3    25    26   ar
     4    26    19    1
     5    19    20   am
     6    20    21    2
     7    20     1    1
     8     1     2   ar
     9     2     3   ar
    10     3     4   ar
    11     4     5   ar
    12     5     7    1
    13     7     8   ar
    14     8     9   ar
    15     9    10   ar
    16    10    11   ar
    17    11    13    1
    18    13    15    1
    19    15    16    1
    20    16    17    1
    21    17    18    1
    22    11    12   ar
    23     5     6   ar
    24    26    27   ar
    25    27    29    1
    26    29    30   am
    27    29    31    2
    28    27    28   ar
    29    28    24   ar
    30     6     1   ar
    31    12     7   ar
    32    18    16    1
    33    19    22    1
    34    13    14    1
    35    30    32    1
    36    30    33    1
@<TRIPOS>MOLECULE
*****
 33 36 0 0 0
SMALL
GASTEIGER

@<TRIPOS>ATOM
      1 C         142.1744  140.7539  164.3905 C.ar    1  UNL1        0.0537
      2 C         143.0910  139.5938  164.1380 C.ar    1  UNL1        0.0045
      3 C         143.6123  138.7856  165.2891 C.ar    1  UNL1        0.0001
      4 C         143.2171  139.1375  166.6926 C.ar    1  UNL1        0.0000
      5 C         142.3006  140.2977  166.9451 C.ar    1  UNL1        0.0003
      6 C         141.7792  141.1059  165.7941 C.ar    1  UNL1        0.0045
      7 C         141.9054  140.6497  168.3487 C.ar    1  UNL1        0.0043
      8 C         142.6411  141.7283  169.0869 C.ar    1  UNL1        0.0208
      9 C         142.2459  142.0803  170.4904 C.ar    1  UNL1        0.1003
     10 N         141.1149  141.3536  171.1557 N.ar    1  UNL1       -0.2294
     11 C         140.3791  140.2749  170.4175 C.ar    1  UNL1        0.1285
     12 C         140.7744  139.9230  169.0140 C.ar    1  UNL1        0.0341
     13 N         139.2481  139.5482  171.0828 N.pl3   1  UNL1       -0.3181
     14 H         139.4213  138.9840  171.8708 H       1  UNL1        0.1482
     15 C         137.8532  139.6810  170.5475 C.3     1  UNL1        0.0881
     16 C         136.7295  138.9186  171.1847 C.3     1  UNL1        0.0196
     17 C         136.2244  137.6910  171.8830 C.3     1  UNL1        0.0017
     18 C         135.2883  138.8258  171.5900 C.3     1  UNL1        0.0017
     19 N         141.8151  143.0534  163.2358 N.am    1  UNL1       -0.2778
     20 C         141.6529  141.5622  163.2395 C.2     1  UNL1        0.2496
     21 O         140.9694  140.8792  162.0922 O.2     1  UNL1       -0.2698
     22 H         142.2637  143.5016  163.9888 H       1  UNL1        0.1553
     23 C         141.4594  145.4973  158.5686 C.3     1  UNL1        0.1538
     24 N         141.1302  144.9850  159.9394 N.ar    1  UNL1       -0.2459
     25 C         142.0210  144.1418  160.8031 C.ar    1  UNL1        0.1115
     26 C         141.2937  143.8617  162.0847 C.ar    1  UNL1        0.0936
     27 C         139.9535  144.5316  162.0132 C.ar    1  UNL1        0.1686
     28 N         139.8525  145.2259  160.6874 N.ar    1  UNL1       -0.1632
     29 C         138.8995  144.5109  163.0802 C.2     1  UNL1        0.2635
     30 N         137.4515  144.4073  162.7023 N.am    1  UNL1       -0.3240
     31 O         139.2933  144.5938  164.5252 O.2     1  UNL1       -0.2686
     32 H         137.1930  144.3530  161.7539 H       1  UNL1        0.1453
     33 H         136.7597  144.3937  163.4026 H       1  UNL1        0.1453
@<TRIPOS>BOND
     1    23    24    1
     2    24    25   ar
     3    25    26   ar
     4    26    19    1
     5    19    20   am
     6    20    21    2
     7    20     1    1
     8     1     2   ar
     9     2     3   ar
    10     3     4   ar
    11     4     5   ar
    12     5     7    1
    13     7     8   ar
    14     8     9   ar
    15     9    10   ar
    16    10    11   ar
    17    11    13    1
    18    13    15    1
    19    15    16    1
    20    16    17    1
    21    17    18    1
    22    11    12   ar
    23     5     6   ar
    24    26    27   ar
    25    27    29    1
    26    29    30   am
    27    29    31    2
    28    27    28   ar
    29    28    24   ar
    30     6     1   ar
    31    12     7   ar
    32    18    16    1
    33    19    22    1
    34    13    14    1
    35    30    32    1
    36    30    33    1
@<TRIPOS>MOLECULE
*****
 33 36 0 0 0
SMALL
GASTEIGER

@<TRIPOS>ATOM
      1 C         142.3814  142.7939  163.8352 C.ar    1  UNL1        0.0537
      2 C         143.8049  143.2031  164.0718 C.ar    1  UNL1        0.0045
      3 C         144.3687  143.1870  165.4617 C.ar    1  UNL1        0.0001
      4 C         143.5089  142.7618  166.6150 C.ar    1  UNL1        0.0000
      5 C         142.0854  142.3526  166.3783 C.ar    1  UNL1        0.0003
      6 C         141.5216  142.3687  164.9884 C.ar    1  UNL1        0.0045
      7 C         141.2256  141.9273  167.5316 C.ar    1  UNL1        0.0043
      8 C         141.3150  142.6530  168.8413 C.ar    1  UNL1        0.0208
      9 C         140.4553  142.2277  169.9945 C.ar    1  UNL1        0.1003
     10 N         139.5062  141.0768  169.8381 N.ar    1  UNL1       -0.2294
     11 C         139.4168  140.3511  168.5284 C.ar    1  UNL1        0.1285
     12 C         140.2765  140.7764  167.3751 C.ar    1  UNL1        0.0341
     13 N         138.4677  139.2001  168.3718 N.pl3   1  UNL1       -0.3181
     14 H         138.3484  138.5569  169.1075 H       1  UNL1        0.1482
     15 C         137.7003  139.0292  167.0944 C.3     1  UNL1        0.0881
     16 C         138.4030  138.5631  165.8539 C.3     1  UNL1        0.0196
     17 C         138.9982  138.8588  164.5092 C.3     1  UNL1        0.0017
     18 C         139.0250  137.4600  165.0500 C.3     1  UNL1        0.0017
     19 N         140.3367  142.6957  162.2352 N.am    1  UNL1       -0.2778
     20 C         141.8175  142.8100  162.4452 C.2     1  UNL1        0.2496
     21 O         142.7345  142.9403  161.2654 O.2     1  UNL1       -0.2698
     22 H         139.7349  142.6101  163.0096 H       1  UNL1        0.1553
     23 C         138.0302  141.1796  157.7338 C.3     1  UNL1        0.1538
     24 N         138.7127  142.0148  158.7762 N.ar    1  UNL1       -0.2459
     25 C         139.1300  141.5537  160.1413 C.ar    1  UNL1        0.1115
     26 C         139.7728  142.7117  160.8453 C.ar    1  UNL1        0.0936
     27 C         139.7528  143.8886  159.9155 C.ar    1  UNL1        0.1686
     28 N         139.0976  143.4579  158.6367 N.ar    1  UNL1       -0.1632
     29 C         140.2932  145.2560  160.2123 C.2     1  UNL1        0.2635
     30 N         141.7253  145.5796  159.9048 N.am    1  UNL1       -0.3240
     31 O         139.4016  146.2999  160.8167 O.2     1  UNL1       -0.2686
     32 H         142.3105  144.8944  159.5081 H       1  UNL1        0.1453
     33 H         142.0799  146.4771  160.0996 H       1  UNL1        0.1453
@<TRIPOS>BOND
     1    23    24    1
     2    24    25   ar
     3    25    26   ar
     4    26    19    1
     5    19    20   am
     6    20    21    2
     7    20     1    1
     8     1     2   ar
     9     2     3   ar
    10     3     4   ar
    11     4     5   ar
    12     5     7    1
    13     7     8   ar
    14     8     9   ar
    15     9    10   ar
    16    10    11   ar
    17    11    13    1
    18    13    15    1
    19    15    16    1
    20    16    17    1
    21    17    18    1
    22    11    12   ar
    23     5     6   ar
    24    26    27   ar
    25    27    29    1
    26    29    30   am
    27    29    31    2
    28    27    28   ar
    29    28    24   ar
    30     6     1   ar
    31    12     7   ar
    32    18    16    1
    33    19    22    1
    34    13    14    1
    35    30    32    1
    36    30    33    1
@<TRIPOS>MOLECULE
*****
 33 36 0 0 0
SMALL
GASTEIGER

@<TRIPOS>ATOM
      1 C         138.9714  140.6503  162.2389 C.ar    1  UNL1        0.0537
      2 C         138.3145  139.3848  161.7733 C.ar    1  UNL1        0.0045
      3 C         138.3408  138.1625  162.6423 C.ar    1  UNL1        0.0001
      4 C         139.0241  138.2056  163.9769 C.ar    1  UNL1        0.0000
      5 C         139.6811  139.4712  164.4426 C.ar    1  UNL1        0.0003
      6 C         139.6547  140.6935  163.5736 C.ar    1  UNL1        0.0045
      7 C         140.3643  139.5144  165.7772 C.ar    1  UNL1        0.0043
      8 C         141.8504  139.3310  165.8652 C.ar    1  UNL1        0.0208
      9 C         142.5337  139.3742  167.1999 C.ar    1  UNL1        0.1003
     10 N         141.7309  139.6007  168.4465 N.ar    1  UNL1       -0.2294
     11 C         140.2448  139.7841  168.3585 C.ar    1  UNL1        0.1285
     12 C         139.5615  139.7409  167.0238 C.ar    1  UNL1        0.0341
     13 N         139.4419  140.0107  169.6051 N.pl3   1  UNL1       -0.3181
     14 H         138.7360  139.3730  169.8587 H       1  UNL1        0.1482
     15 C         139.7144  141.2090  170.4653 C.3     1  UNL1        0.0881
     16 C         140.1011  142.5133  169.8336 C.3     1  UNL1        0.0196
     17 C         140.3951  143.9792  169.9557 C.3     1  UNL1        0.0017
     18 C         140.4768  143.3068  168.6174 C.3     1  UNL1        0.0017
     19 N         140.1208  142.1978  160.4970 N.am    1  UNL1       -0.2778
     20 C         138.9451  141.8727  161.3699 C.2     1  UNL1        0.2496
     21 O         137.7431  142.7699  161.3739 O.2     1  UNL1       -0.2698
     22 H         140.9098  141.6089  160.4944 H       1  UNL1        0.1553
     23 C         139.7065  145.3591  156.2880 C.3     1  UNL1        0.1538
     24 N         139.9041  144.8732  157.6933 N.ar    1  UNL1       -0.2459
     25 C         139.8364  143.4462  158.1506 C.ar    1  UNL1        0.1115
     26 C         140.0945  143.4202  159.6280 C.ar    1  UNL1        0.0936
     27 C         140.3216  144.8311  160.0838 C.ar    1  UNL1        0.1686
     28 N         140.2039  145.7291  158.8881 N.ar    1  UNL1       -0.1632
     29 C         140.6149  145.2673  161.4887 C.2     1  UNL1        0.2635
     30 N         140.0239  146.5405  162.0175 N.am    1  UNL1       -0.3240
     31 O         141.4992  144.4303  162.3648 O.2     1  UNL1       -0.2686
     32 H         139.4436  147.0899  161.4425 H       1  UNL1        0.1453
     33 H         140.2165  146.8268  162.9396 H       1  UNL1        0.1453
@<TRIPOS>BOND
     1    23    24    1
     2    24    25   ar
     3    25    26   ar
     4    26    19    1
     5    19    20   am
     6    20    21    2
     7    20     1    1
     8     1     2   ar
     9     2     3   ar
    10     3     4   ar
    11     4     5   ar
    12     5     7    1
    13     7     8   ar
    14     8     9   ar
    15     9    10   ar
    16    10    11   ar
    17    11    13    1
    18    13    15    1
    19    15    16    1
    20    16    17    1
    21    17    18    1
    22    11    12   ar
    23     5     6   ar
    24    26    27   ar
    25    27    29    1
    26    29    30   am
    27    29    31    2
    28    27    28   ar
    29    28    24   ar
    30     6     1   ar
    31    12     7   ar
    32    18    16    1
    33    19    22    1
    34    13    14    1
    35    30    32    1
    36    30    33    1
@<TRIPOS>MOLECULE
*****
 33 36 0 0 0
SMALL
GASTEIGER

@<TRIPOS>ATOM
      1 C         141.0690  139.3417  165.2269 C.ar    1  UNL1        0.0537
      2 C         141.1080  137.8775  164.9036 C.ar    1  UNL1        0.0045
      3 C         140.6197  137.3904  163.5716 C.ar    1  UNL1        0.0001
      4 C         140.0925  138.3674  162.5629 C.ar    1  UNL1        0.0000
      5 C         140.0536  139.8316  162.8863 C.ar    1  UNL1        0.0003
      6 C         140.5418  140.3187  164.2183 C.ar    1  UNL1        0.0045
      7 C         139.5263  140.8087  161.8776 C.ar    1  UNL1        0.0043
      8 C         138.8735  140.3116  160.6220 C.ar    1  UNL1        0.0208
      9 C         138.3463  141.2886  159.6133 C.ar    1  UNL1        0.1003
     10 N         138.4719  142.7628  159.8603 N.ar    1  UNL1       -0.2294
     11 C         139.1247  143.2599  161.1159 C.ar    1  UNL1        0.1285
     12 C         139.6519  142.2828  162.1246 C.ar    1  UNL1        0.0341
     13 N         139.2504  144.7341  161.3630 N.pl3   1  UNL1       -0.3181
     14 H         139.0509  145.3730  160.6410 H       1  UNL1        0.1482
     15 C         139.6799  145.2349  162.7101 C.3     1  UNL1        0.0881
     16 C         139.0152  144.7154  163.9503 C.3     1  UNL1        0.0196
     17 C         137.7850  144.2323  164.6597 C.3     1  UNL1        0.0017
     18 C         139.0940  144.2987  165.3891 C.3     1  UNL1        0.0017
     19 N         140.8862  140.9943  167.2233 N.am    1  UNL1       -0.2778
     20 C         141.5573  139.8289  166.5590 C.2     1  UNL1        0.2496
     21 O         142.7167  139.1506  167.2266 O.2     1  UNL1       -0.2698
     22 H         140.1253  141.4394  166.7851 H       1  UNL1        0.1553
     23 C         143.5904  143.6035  170.9329 C.3     1  UNL1        0.1538
     24 N         142.6175  142.6808  170.2604 N.ar    1  UNL1       -0.2459
     25 C         142.4569  142.4953  168.7806 C.ar    1  UNL1        0.1115
     26 C         141.3745  141.4815  168.5554 C.ar    1  UNL1        0.0936
     27 C         140.8662  141.0404  169.8959 C.ar    1  UNL1        0.1686
     28 N         141.6344  141.7816  170.9497 N.ar    1  UNL1       -0.1632
     29 C         139.7804  140.0347  170.1398 C.2     1  UNL1        0.2635
     30 N         139.7097  139.3104  171.4515 N.am    1  UNL1       -0.3240
     31 O         138.7652  139.7532  169.0720 O.2     1  UNL1       -0.2686
     32 H         140.3760  139.4952  172.1523 H       1  UNL1        0.1453
     33 H         138.9970  138.6504  171.6115 H       1  UNL1        0.1453
@<TRIPOS>BOND
     1    23    24    1
     2    24    25   ar
     3    25    26   ar
     4    26    19    1
     5    19    20   am
     6    20    21    2
     7    20     1    1
     8     1     2   ar
     9     2     3   ar
    10     3     4   ar
    11     4     5   ar
    12     5     7    1
    13     7     8   ar
    14     8     9   ar
    15     9    10   ar
    16    10    11   ar
    17    11    13    1
    18    13    15    1
    19    15    16    1
    20    16    17    1
    21    17    18    1
    22    11    12   ar
    23     5     6   ar
    24    26    27   ar
    25    27    29    1
    26    29    30   am
    27    29    31    2
    28    27    28   ar
    29    28    24   ar
    30     6     1   ar
    31    12     7   ar
    32    18    16    1
    33    19    22    1
    34    13    14    1
    35    30    32    1
    36    30    33    1
@<TRIPOS>MOLECULE
*****
 33 36 0 0 0
SMALL
GASTEIGER

@<TRIPOS>ATOM
      1 C         140.8027  143.6965  162.9333 C.ar    1  UNL1        0.0537
      2 C         140.1572  145.0076  163.2715 C.ar    1  UNL1        0.0045
      3 C         139.2249  145.1045  164.4425 C.ar    1  UNL1        0.0001
      4 C         138.9380  143.8903  165.2753 C.ar    1  UNL1        0.0000
      5 C         139.5834  142.5793  164.9371 C.ar    1  UNL1        0.0003
      6 C         140.5158  142.4824  163.7661 C.ar    1  UNL1        0.0045
      7 C         139.2966  141.3651  165.7698 C.ar    1  UNL1        0.0043
      8 C         138.3719  140.3029  165.2535 C.ar    1  UNL1        0.0208
      9 C         138.0850  139.0887  166.0863 C.ar    1  UNL1        0.1003
     10 N         138.7228  138.9368  167.4354 N.ar    1  UNL1       -0.2294
     11 C         139.6474  139.9990  167.9517 C.ar    1  UNL1        0.1285
     12 C         139.9343  141.2132  167.1189 C.ar    1  UNL1        0.0341
     13 N         140.2852  139.8472  169.3009 N.pl3   1  UNL1       -0.3181
     14 H         139.7259  139.6819  170.0940 H       1  UNL1        0.1482
     15 C         141.7753  139.9472  169.4416 C.3     1  UNL1        0.0881
     16 C         142.4174  141.2797  169.6904 C.3     1  UNL1        0.0196
     17 C         143.5496  142.2380  169.4674 C.3     1  UNL1        0.0017
     18 C         142.3973  142.6295  170.3442 C.3     1  UNL1        0.0017
     19 N         141.3664  142.7565  160.5777 N.am    1  UNL1       -0.2778
     20 C         141.7351  143.5996  161.7622 C.2     1  UNL1        0.2496
     21 O         143.0363  144.3458  161.7758 O.2     1  UNL1       -0.2698
     22 H         140.5124  142.2667  160.5689 H       1  UNL1        0.1553
     23 C         144.9628  140.9531  157.1579 C.3     1  UNL1        0.1538
     24 N         143.9519  141.8306  157.8348 N.ar    1  UNL1       -0.2459
     25 C         143.1999  141.5027  159.0907 C.ar    1  UNL1        0.1115
     26 C         142.2988  142.6595  159.4067 C.ar    1  UNL1        0.0936
     27 C         142.4937  143.7022  158.3461 C.ar    1  UNL1        0.1686
     28 N         143.5153  143.1899  157.3746 N.ar    1  UNL1       -0.1632
     29 C         141.7904  145.0249  158.2704 C.2     1  UNL1        0.2635
     30 N         142.4898  146.2136  157.6805 N.am    1  UNL1       -0.3240
     31 O         140.3876  145.1590  158.7845 O.2     1  UNL1       -0.2686
     32 H         143.4105  146.1255  157.3431 H       1  UNL1        0.1453
     33 H         142.0282  147.0817  157.6308 H       1  UNL1        0.1453
@<TRIPOS>BOND
     1    23    24    1
     2    24    25   ar
     3    25    26   ar
     4    26    19    1
     5    19    20   am
     6    20    21    2
     7    20     1    1
     8     1     2   ar
     9     2     3   ar
    10     3     4   ar
    11     4     5   ar
    12     5     7    1
    13     7     8   ar
    14     8     9   ar
    15     9    10   ar
    16    10    11   ar
    17    11    13    1
    18    13    15    1
    19    15    16    1
    20    16    17    1
    21    17    18    1
    22    11    12   ar
    23     5     6   ar
    24    26    27   ar
    25    27    29    1
    26    29    30   am
    27    29    31    2
    28    27    28   ar
    29    28    24   ar
    30     6     1   ar
    31    12     7   ar
    32    18    16    1
    33    19    22    1
    34    13    14    1
    35    30    32    1
    36    30    33    1
@<TRIPOS>MOLECULE
*****
 33 36 0 0 0
SMALL
GASTEIGER

@<TRIPOS>ATOM
      1 C         142.8979  140.3280  165.4196 C.ar    1  UNL1        0.0537
      2 C         144.1576  139.5357  165.2320 C.ar    1  UNL1        0.0045
      3 C         144.9261  139.6418  163.9482 C.ar    1  UNL1        0.0001
      4 C         144.4349  140.5403  162.8521 C.ar    1  UNL1        0.0000
      5 C         143.1752  141.3326  163.0398 C.ar    1  UNL1        0.0003
      6 C         142.4067  141.2265  164.3235 C.ar    1  UNL1        0.0045
      7 C         142.6840  142.2311  161.9437 C.ar    1  UNL1        0.0043
      8 C         143.4957  142.4025  160.6940 C.ar    1  UNL1        0.0208
      9 C         143.0045  143.3010  159.5979 C.ar    1  UNL1        0.1003
     10 N         141.7016  144.0281  159.7514 N.ar    1  UNL1       -0.2294
     11 C         140.8898  143.8567  161.0011 C.ar    1  UNL1        0.1285
     12 C         141.3810  142.9582  162.0972 C.ar    1  UNL1        0.0341
     13 N         139.5868  144.5838  161.1547 N.pl3   1  UNL1       -0.3181
     14 H         138.8916  144.4997  160.4627 H       1  UNL1        0.1482
     15 C         139.3431  145.4391  162.3626 C.3     1  UNL1        0.0881
     16 C         138.8108  144.8233  163.6225 C.3     1  UNL1        0.0196
     17 C         138.7250  144.7967  165.1198 C.3     1  UNL1        0.0017
     18 C         137.9745  143.7834  164.3075 C.3     1  UNL1        0.0017
     19 N         140.9303  141.0932  166.9340 N.am    1  UNL1       -0.2778
     20 C         142.1293  140.2219  166.7035 C.2     1  UNL1        0.2496
     21 O         142.5598  139.2445  167.7567 O.2     1  UNL1       -0.2698
     22 H         140.6477  141.7347  166.2427 H       1  UNL1        0.1553
     23 C         137.5038  139.4900  170.6178 C.3     1  UNL1        0.1538
     24 N         138.5867  140.2502  169.9110 N.ar    1  UNL1       -0.2459
     25 C         139.0753  139.9966  168.5156 C.ar    1  UNL1        0.1115
     26 C         140.1617  140.9871  168.2178 C.ar    1  UNL1        0.0936
     27 C         140.3445  141.8528  169.4290 C.ar    1  UNL1        0.1686
     28 N         139.3712  141.3974  170.4755 N.ar    1  UNL1       -0.1632
     29 C         141.3281  142.9766  169.5691 C.2     1  UNL1        0.2635
     30 N         140.9184  144.2521  170.2438 N.am    1  UNL1       -0.3240
     31 O         142.7213  142.8250  169.0344 O.2     1  UNL1       -0.2686
     32 H         140.0039  144.3517  170.5947 H       1  UNL1        0.1453
     33 H         141.5639  144.9897  170.3358 H       1  UNL1        0.1453
@<TRIPOS>BOND
     1    23    24    1
     2    24    25   ar
     3    25    26   ar
     4    26    19    1
     5    19    20   am
     6    20    21    2
     7    20     1    1
     8     1     2   ar
     9     2     3   ar
    10     3     4   ar
    11     4     5   ar
    12     5     7    1
    13     7     8   ar
    14     8     9   ar
    15     9    10   ar
    16    10    11   ar
    17    11    13    1
    18    13    15    1
    19    15    16    1
    20    16    17    1
    21    17    18    1
    22    11    12   ar
    23     5     6   ar
    24    26    27   ar
    25    27    29    1
    26    29    30   am
    27    29    31    2
    28    27    28   ar
    29    28    24   ar
    30     6     1   ar
    31    12     7   ar
    32    18    16    1
    33    19    22    1
    34    13    14    1
    35    30    32    1
    36    30    33    1
@<TRIPOS>MOLECULE
*****
 33 36 0 0 0
SMALL
GASTEIGER

@<TRIPOS>ATOM
      1 C         141.6937  143.9199  162.3649 C.ar    1  UNL1        0.0537
      2 C         142.5690  145.0884  162.7088 C.ar    1  UNL1        0.0045
      3 C         143.5176  144.9996  163.8673 C.ar    1  UNL1        0.0001
      4 C         143.5907  143.7423  164.6821 C.ar    1  UNL1        0.0000
      5 C         142.7154  142.5738  164.3382 C.ar    1  UNL1        0.0003
      6 C         141.7669  142.6626  163.1796 C.ar    1  UNL1        0.0045
      7 C         142.7885  141.3165  165.1530 C.ar    1  UNL1        0.0043
      8 C         143.7040  140.2042  164.7351 C.ar    1  UNL1        0.0208
      9 C         143.7772  138.9469  165.5498 C.ar    1  UNL1        0.1003
     10 N         142.9349  138.8018  166.7824 N.ar    1  UNL1       -0.2294
     11 C         142.0194  139.9141  167.2003 C.ar    1  UNL1        0.1285
     12 C         141.9462  141.1714  166.3856 C.ar    1  UNL1        0.0341
     13 N         141.1770  139.7691  168.4330 N.pl3   1  UNL1       -0.3181
     14 H         141.5813  139.4455  169.2703 H       1  UNL1        0.1482
     15 C         139.7186  140.1172  168.3900 C.3     1  UNL1        0.0881
     16 C         138.8366  139.5229  167.3323 C.3     1  UNL1        0.0196
     17 C         137.7876  138.5326  166.9213 C.3     1  UNL1        0.0017
     18 C         138.3578  139.4837  165.9114 C.3     1  UNL1        0.0017
     19 N         141.0253  143.2430  159.9472 N.am    1  UNL1       -0.2778
     20 C         140.7451  144.0087  161.2062 C.2     1  UNL1        0.2496
     21 O         139.5164  144.8632  161.3067 O.2     1  UNL1       -0.2698
     22 H         141.8317  142.6821  159.8813 H       1  UNL1        0.1553
     23 C         137.0930  142.1896  156.5843 C.3     1  UNL1        0.1538
     24 N         138.2692  142.8475  157.2428 N.ar    1  UNL1       -0.2459
     25 C         138.9565  142.3794  158.4914 C.ar    1  UNL1        0.1115
     26 C         140.0767  143.3317  158.7886 C.ar    1  UNL1        0.0936
     27 C         140.0818  144.3883  157.7239 C.ar    1  UNL1        0.1686
     28 N         138.9647  144.0891  156.7686 N.ar    1  UNL1       -0.1632
     29 C         141.0363  145.5416  157.6309 C.2     1  UNL1        0.2635
     30 N         140.7082  146.7185  156.7606 N.am    1  UNL1       -0.3240
     31 O         142.3191  145.5181  158.4080 O.2     1  UNL1       -0.2686
     32 H         139.8663  146.7340  156.2505 H       1  UNL1        0.1453
     33 H         141.3347  147.4755  156.6996 H       1  UNL1        0.1453
@<TRIPOS>BOND
     1    23    24    1
     2    24    25   ar
     3    25    26   ar
     4    26    19    1
     5    19    20   am
     6    20    21    2
     7    20     1    1
     8     1     2   ar
     9     2     3   ar
    10     3     4   ar
    11     4     5   ar
    12     5     7    1
    13     7     8   ar
    14     8     9   ar
    15     9    10   ar
    16    10    11   ar
    17    11    13    1
    18    13    15    1
    19    15    16    1
    20    16    17    1
    21    17    18    1
    22    11    12   ar
    23     5     6   ar
    24    26    27   ar
    25    27    29    1
    26    29    30   am
    27    29    31    2
    28    27    28   ar
    29    28    24   ar
    30     6     1   ar
    31    12     7   ar
    32    18    16    1
    33    19    22    1
    34    13    14    1
    35    30    32    1
    36    30    33    1
