@<TRIPOS>MOLECULE
*****
 39 42 0 0 0
SMALL
GASTEIGER

@<TRIPOS>ATOM
      1 N         138.9713  140.3746  160.8857 N.3     1  UNL1       -0.2725
      2 C         140.1164  140.7675  160.0002 C.3     1  UNL1        0.0738
      3 C         139.6078  140.8443  158.5912 C.3     1  UNL1        0.0383
      4 C         138.1482  140.4988  158.6058 C.3     1  UNL1        0.0889
      5 C         137.7548  140.2085  160.0239 C.3     1  UNL1        0.0919
      6 C         139.1528  139.7954  165.3445 C.3     1  UNL1        0.1070
      7 O         138.8704  138.7471  166.3795 O.3     1  UNL1       -0.3827
      8 C         139.5656  141.1051  164.7410 C.3     1  UNL1        0.0325
      9 C         139.5051  141.2982  163.2547 C.3     1  UNL1        0.0187
     10 C         139.0318  140.1816  162.3720 C.3     1  UNL1        0.0577
     11 C         138.6191  138.8719  162.9755 C.3     1  UNL1        0.0187
     12 C         138.6796  138.6788  164.4618 C.3     1  UNL1        0.0325
     13 H         139.0721  139.0997  167.2604 H       1  UNL1        0.2107
     14 C         140.6534  142.8056  170.3131 C.3     1  UNL1        0.0310
     15 C         140.2783  142.0530  169.0710 C.ar    1  UNL1       -0.0219
     16 C         140.5038  142.6708  167.7229 C.ar    1  UNL1       -0.0045
     17 C         140.1286  141.9183  166.4808 C.ar    1  UNL1       -0.0024
     18 C         139.5280  140.5479  166.5867 C.ar    1  UNL1        0.0017
     19 C         139.3025  139.9301  167.9348 C.ar    1  UNL1       -0.0024
     20 C         139.6776  140.6827  169.1769 C.ar    1  UNL1       -0.0045
     21 N         137.2413  140.4518  157.4120 N.am    1  UNL1       -0.3032
     22 C         136.9552  141.7043  156.6378 C.2     1  UNL1        0.2425
     23 O         137.5760  143.0037  157.0574 O.2     1  UNL1       -0.2733
     24 H         136.8338  139.5989  157.1366 H       1  UNL1        0.1495
     25 C         136.0482  141.6573  155.4439 C.3     1  UNL1        0.1759
     26 N         134.5604  141.6295  155.6329 N.am    1  UNL1       -0.2931
     27 C         133.8680  140.3358  155.9439 C.2     1  UNL1        0.2462
     28 O         134.6633  139.0699  156.0660 O.2     1  UNL1       -0.2701
     29 H         134.0384  142.4604  155.5528 H       1  UNL1        0.1502
     30 C         132.3802  140.3080  156.1329 C.ar    1  UNL1        0.0533
     31 C         131.5226  141.3563  155.4882 C.ar    1  UNL1        0.0045
     32 C         130.0348  141.3284  155.6772 C.ar    1  UNL1        0.0001
     33 C         129.4045  140.2524  156.5109 C.ar    1  UNL1        0.0039
     34 C         130.2622  139.2042  157.1556 C.ar    1  UNL1        0.0716
     35 C         131.7500  139.2320  156.9666 C.ar    1  UNL1        0.0084
     36 C         129.6320  138.1281  157.9893 C.3     1  UNL1        0.4186
     37 F         129.0019  137.0521  158.8230 F       1  UNL1       -0.1659
     38 F         129.7879  137.1584  156.8556 F       1  UNL1       -0.1659
     39 F         129.4761  139.0979  159.1231 F       1  UNL1       -0.1659
@<TRIPOS>BOND
     1    14    15    1
     2    15    16   ar
     3    16    17   ar
     4    17    18   ar
     5    18     6    1
     6     6     7    1
     7     6     8    1
     8     8     9    1
     9     9    10    1
    10    10     1    1
    11     1     2    1
    12     2     3    1
    13     3     4    1
    14     4    21    1
    15    21    22   am
    16    22    23    2
    17    22    25    1
    18    25    26    1
    19    26    27   am
    20    27    28    2
    21    27    30    1
    22    30    31   ar
    23    31    32   ar
    24    32    33   ar
    25    33    34   ar
    26    34    36    1
    27    36    37    1
    28    36    38    1
    29    36    39    1
    30    34    35   ar
    31     4     5    1
    32    10    11    1
    33    11    12    1
    34    18    19   ar
    35    19    20   ar
    36    20    15   ar
    37    12     6    1
    38     5     1    1
    39    35    30   ar
    40     7    13    1
    41    21    24    1
    42    26    29    1
@<TRIPOS>MOLECULE
*****
 39 42 0 0 0
SMALL
GASTEIGER

@<TRIPOS>ATOM
      1 N         143.5851  140.2805  161.4592 N.3     1  UNL1       -0.2725
      2 C         144.0670  141.5822  160.8907 C.3     1  UNL1        0.0738
      3 C         144.1586  141.4319  159.4011 C.3     1  UNL1        0.0383
      4 C         143.7334  140.0372  159.0490 C.3     1  UNL1        0.0889
      5 C         143.3790  139.3256  160.3209 C.3     1  UNL1        0.0919
      6 C         142.8816  139.3949  165.8148 C.3     1  UNL1        0.1070
      7 O         143.5387  138.6914  166.9650 O.3     1  UNL1       -0.3827
      8 C         141.8714  140.1858  165.0376 C.3     1  UNL1        0.0325
      9 C         142.1059  140.4810  163.5857 C.3     1  UNL1        0.0187
     10 C         143.3505  139.9853  162.9111 C.3     1  UNL1        0.0577
     11 C         144.3607  139.1945  163.6883 C.3     1  UNL1        0.0187
     12 C         144.1262  138.8993  165.1402 C.3     1  UNL1        0.0325
     13 H         142.9805  138.7709  167.7543 H       1  UNL1        0.2107
     14 C         138.8158  140.4001  170.1111 C.3     1  UNL1        0.0310
     15 C         139.8322  140.1488  169.0370 C.ar    1  UNL1       -0.0219
     16 C         139.3859  139.8701  167.6324 C.ar    1  UNL1       -0.0045
     17 C         140.4023  139.6188  166.5583 C.ar    1  UNL1       -0.0024
     18 C         141.8651  139.6462  166.8889 C.ar    1  UNL1        0.0017
     19 C         142.3115  139.9249  168.2935 C.ar    1  UNL1       -0.0024
     20 C         141.2951  140.1762  169.3676 C.ar    1  UNL1       -0.0045
     21 N         143.6732  139.4561  157.6674 N.am    1  UNL1       -0.3032
     22 C         142.3958  139.5164  156.8834 C.2     1  UNL1        0.2425
     23 O         141.1786  140.1577  157.4810 O.2     1  UNL1       -0.2733
     24 H         144.4721  139.0352  157.2752 H       1  UNL1        0.1495
     25 C         142.3356  138.9354  155.5018 C.3     1  UNL1        0.1759
     26 N         142.2433  137.4497  155.3163 N.am    1  UNL1       -0.2931
     27 C         143.4797  136.6049  155.4024 C.2     1  UNL1        0.2462
     28 O         144.8085  137.2456  155.6739 O.2     1  UNL1       -0.2701
     29 H         141.3711  137.0292  155.1381 H       1  UNL1        0.1502
     30 C         143.3873  135.1193  155.2169 C.ar    1  UNL1        0.0533
     31 C         142.6045  134.5540  154.0689 C.ar    1  UNL1        0.0045
     32 C         142.5122  133.0684  153.8835 C.ar    1  UNL1        0.0001
     33 C         143.2025  132.1480  154.8459 C.ar    1  UNL1        0.0039
     34 C         143.9853  132.7133  155.9938 C.ar    1  UNL1        0.0716
     35 C         144.0777  134.1989  156.1792 C.ar    1  UNL1        0.0084
     36 C         144.6758  131.7929  156.9562 C.3     1  UNL1        0.4186
     37 F         145.3662  130.8726  157.9186 F       1  UNL1       -0.1659
     38 F         144.8560  130.7833  155.8616 F       1  UNL1       -0.1659
     39 F         144.4956  132.8025  158.0509 F       1  UNL1       -0.1659
@<TRIPOS>BOND
     1    14    15    1
     2    15    16   ar
     3    16    17   ar
     4    17    18   ar
     5    18     6    1
     6     6     7    1
     7     6     8    1
     8     8     9    1
     9     9    10    1
    10    10     1    1
    11     1     2    1
    12     2     3    1
    13     3     4    1
    14     4    21    1
    15    21    22   am
    16    22    23    2
    17    22    25    1
    18    25    26    1
    19    26    27   am
    20    27    28    2
    21    27    30    1
    22    30    31   ar
    23    31    32   ar
    24    32    33   ar
    25    33    34   ar
    26    34    36    1
    27    36    37    1
    28    36    38    1
    29    36    39    1
    30    34    35   ar
    31     4     5    1
    32    10    11    1
    33    11    12    1
    34    18    19   ar
    35    19    20   ar
    36    20    15   ar
    37    12     6    1
    38     5     1    1
    39    35    30   ar
    40     7    13    1
    41    21    24    1
    42    26    29    1
@<TRIPOS>MOLECULE
*****
 39 42 0 0 0
SMALL
GASTEIGER

@<TRIPOS>ATOM
      1 N         135.2234  140.0744  155.8440 N.3     1  UNL1       -0.2725
      2 C         136.1824  141.0376  156.4784 C.3     1  UNL1        0.0738
      3 C         137.5507  140.7573  155.9315 C.3     1  UNL1        0.0383
      4 C         137.4374  139.6208  154.9590 C.3     1  UNL1        0.0889
      5 C         135.9991  139.1988  154.9050 C.3     1  UNL1        0.0919
      6 C         130.7967  139.8508  156.6211 C.3     1  UNL1        0.1070
      7 O         129.5398  140.6184  156.3364 O.3     1  UNL1       -0.3827
      8 C         131.7048  138.7768  157.1425 C.3     1  UNL1        0.0325
      9 C         133.1804  138.8514  156.8834 C.3     1  UNL1        0.0187
     10 C         133.7478  139.9998  156.1031 C.3     1  UNL1        0.0577
     11 C         132.8397  141.0738  155.5817 C.3     1  UNL1        0.0187
     12 C         131.3641  140.9992  155.8407 C.3     1  UNL1        0.0325
     13 H         128.7825  140.1554  156.7276 H       1  UNL1        0.2107
     14 C         126.7811  136.3233  159.3472 C.3     1  UNL1        0.0310
     15 C         127.7850  137.2052  158.6657 C.ar    1  UNL1       -0.0219
     16 C         128.3537  136.8060  157.3363 C.ar    1  UNL1       -0.0045
     17 C         129.3576  137.6879  156.6548 C.ar    1  UNL1       -0.0024
     18 C         129.7928  138.9689  157.3026 C.ar    1  UNL1        0.0017
     19 C         129.2240  139.3680  158.6319 C.ar    1  UNL1       -0.0024
     20 C         128.2201  138.4861  159.3135 C.ar    1  UNL1       -0.0045
     21 N         138.5645  139.0132  154.1779 N.am    1  UNL1       -0.3032
     22 C         139.0801  137.6520  154.5405 C.2     1  UNL1        0.2425
     23 O         138.4685  136.8986  155.6843 O.2     1  UNL1       -0.2733
     24 H         138.9659  139.5077  153.4271 H       1  UNL1        0.1495
     25 C         140.2073  137.0443  153.7593 C.3     1  UNL1        0.1759
     26 N         140.7143  135.6778  154.1137 N.am    1  UNL1       -0.2931
     27 C         141.6181  135.4969  155.2971 C.2     1  UNL1        0.2462
     28 O         142.0148  136.6824  156.1261 O.2     1  UNL1       -0.2701
     29 H         140.4539  134.8998  153.5696 H       1  UNL1        0.1502
     30 C         142.1251  134.1304  155.6515 C.ar    1  UNL1        0.0533
     31 C         141.4111  132.9114  155.1472 C.ar    1  UNL1        0.0045
     32 C         141.9182  131.5449  155.5016 C.ar    1  UNL1        0.0001
     33 C         143.1391  131.3973  156.3604 C.ar    1  UNL1        0.0039
     34 C         143.8530  132.6164  156.8648 C.ar    1  UNL1        0.0716
     35 C         143.3460  133.9828  156.5103 C.ar    1  UNL1        0.0084
     36 C         145.0740  132.4689  157.7236 C.3     1  UNL1        0.4186
     37 F         146.2949  132.3214  158.5824 F       1  UNL1       -0.1659
     38 F         145.5938  131.4056  156.8021 F       1  UNL1       -0.1659
     39 F         144.5543  133.5322  158.6452 F       1  UNL1       -0.1659
@<TRIPOS>BOND
     1    14    15    1
     2    15    16   ar
     3    16    17   ar
     4    17    18   ar
     5    18     6    1
     6     6     7    1
     7     6     8    1
     8     8     9    1
     9     9    10    1
    10    10     1    1
    11     1     2    1
    12     2     3    1
    13     3     4    1
    14     4    21    1
    15    21    22   am
    16    22    23    2
    17    22    25    1
    18    25    26    1
    19    26    27   am
    20    27    28    2
    21    27    30    1
    22    30    31   ar
    23    31    32   ar
    24    32    33   ar
    25    33    34   ar
    26    34    36    1
    27    36    37    1
    28    36    38    1
    29    36    39    1
    30    34    35   ar
    31     4     5    1
    32    10    11    1
    33    11    12    1
    34    18    19   ar
    35    19    20   ar
    36    20    15   ar
    37    12     6    1
    38     5     1    1
    39    35    30   ar
    40     7    13    1
    41    21    24    1
    42    26    29    1
@<TRIPOS>MOLECULE
*****
 39 42 0 0 0
SMALL
GASTEIGER

@<TRIPOS>ATOM
      1 N         139.0740  139.5640  162.1407 N.3     1  UNL1       -0.2725
      2 C         138.0283  140.2746  161.3336 C.3     1  UNL1        0.0738
      3 C         138.1822  139.8538  159.9021 C.3     1  UNL1        0.0383
      4 C         139.3231  138.8830  159.8245 C.3     1  UNL1        0.0889
      5 C         139.8742  138.7039  161.2079 C.3     1  UNL1        0.0919
      6 C         139.7005  139.9450  166.5805 C.3     1  UNL1        0.1070
      7 O         139.1842  139.3723  167.8672 O.3     1  UNL1       -0.3827
      8 C         140.5074  140.7841  165.6345 C.3     1  UNL1        0.0325
      9 C         140.2985  140.6571  164.1545 C.3     1  UNL1        0.0187
     10 C         139.2829  139.6910  163.6206 C.3     1  UNL1        0.0577
     11 C         138.4760  138.8519  164.5666 C.3     1  UNL1        0.0187
     12 C         138.6849  138.9789  166.0466 C.3     1  UNL1        0.0325
     13 H         139.6462  139.7855  168.6134 H       1  UNL1        0.2107
     14 C         143.0459  143.0138  170.5036 C.3     1  UNL1        0.0310
     15 C         142.2095  142.2466  169.5229 C.ar    1  UNL1       -0.0219
     16 C         141.0252  142.9001  168.8745 C.ar    1  UNL1       -0.0045
     17 C         140.1889  142.1329  167.8938 C.ar    1  UNL1       -0.0024
     18 C         140.5369  140.7122  167.5613 C.ar    1  UNL1        0.0017
     19 C         141.7212  140.0587  168.2096 C.ar    1  UNL1       -0.0024
     20 C         142.5575  140.8259  169.1904 C.ar    1  UNL1       -0.0045
     21 N         139.8247  138.2096  158.5816 N.am    1  UNL1       -0.3032
     22 C         140.7261  138.9503  157.6389 C.2     1  UNL1        0.2425
     23 O         141.1260  140.3645  157.9392 O.2     1  UNL1       -0.2733
     24 H         139.5622  137.2814  158.3845 H       1  UNL1        0.1495
     25 C         141.2278  138.2769  156.3959 C.3     1  UNL1        0.1759
     26 N         141.2040  136.7807  156.2918 N.am    1  UNL1       -0.2931
     27 C         142.4878  136.0058  156.3302 C.2     1  UNL1        0.2462
     28 O         143.7953  136.7271  156.4726 O.2     1  UNL1       -0.2701
     29 H         140.3459  136.3073  156.1984 H       1  UNL1        0.1502
     30 C         142.4641  134.5096  156.2261 C.ar    1  UNL1        0.0533
     31 C         141.4497  133.8347  155.3511 C.ar    1  UNL1        0.0045
     32 C         141.4260  132.3385  155.2470 C.ar    1  UNL1        0.0001
     33 C         142.4166  131.5172  156.0179 C.ar    1  UNL1        0.0039
     34 C         143.4308  132.1921  156.8929 C.ar    1  UNL1        0.0716
     35 C         143.4546  133.6883  156.9970 C.ar    1  UNL1        0.0084
     36 C         144.4214  131.3709  157.6638 C.3     1  UNL1        0.4186
     37 F         145.4120  130.5497  158.4347 F       1  UNL1       -0.1659
     38 F         143.3703  130.3280  157.9035 F       1  UNL1       -0.1659
     39 F         145.4726  132.4138  157.4242 F       1  UNL1       -0.1659
@<TRIPOS>BOND
     1    14    15    1
     2    15    16   ar
     3    16    17   ar
     4    17    18   ar
     5    18     6    1
     6     6     7    1
     7     6     8    1
     8     8     9    1
     9     9    10    1
    10    10     1    1
    11     1     2    1
    12     2     3    1
    13     3     4    1
    14     4    21    1
    15    21    22   am
    16    22    23    2
    17    22    25    1
    18    25    26    1
    19    26    27   am
    20    27    28    2
    21    27    30    1
    22    30    31   ar
    23    31    32   ar
    24    32    33   ar
    25    33    34   ar
    26    34    36    1
    27    36    37    1
    28    36    38    1
    29    36    39    1
    30    34    35   ar
    31     4     5    1
    32    10    11    1
    33    11    12    1
    34    18    19   ar
    35    19    20   ar
    36    20    15   ar
    37    12     6    1
    38     5     1    1
    39    35    30   ar
    40     7    13    1
    41    21    24    1
    42    26    29    1
@<TRIPOS>MOLECULE
*****
 39 42 0 0 0
SMALL
GASTEIGER

@<TRIPOS>ATOM
      1 N         140.9039  139.6930  161.2859 N.3     1  UNL1       -0.2725
      2 C         141.4737  140.8406  160.5060 C.3     1  UNL1        0.0738
      3 C         141.8945  140.3243  159.1621 C.3     1  UNL1        0.0383
      4 C         141.5849  138.8574  159.1113 C.3     1  UNL1        0.0889
      5 C         140.9727  138.4673  160.4238 C.3     1  UNL1        0.0919
      6 C         139.2743  139.8916  165.4757 C.3     1  UNL1        0.1070
      7 O         138.1403  139.3497  166.2945 O.3     1  UNL1       -0.3827
      8 C         140.5132  140.6568  165.1158 C.3     1  UNL1        0.0325
      9 C         141.0565  140.5906  163.7192 C.3     1  UNL1        0.0187
     10 C         140.3608  139.7592  162.6825 C.3     1  UNL1        0.0577
     11 C         139.1219  138.9939  163.0424 C.3     1  UNL1        0.0187
     12 C         138.5787  139.0601  164.4391 C.3     1  UNL1        0.0325
     13 H         138.2046  139.6894  167.2008 H       1  UNL1        0.2107
     14 C         140.4816  142.4646  170.7599 C.3     1  UNL1        0.0310
     15 C         140.1798  141.8213  169.4388 C.ar    1  UNL1       -0.0219
     16 C         139.5438  140.4636  169.3936 C.ar    1  UNL1       -0.0045
     17 C         139.2420  139.8204  168.0726 C.ar    1  UNL1       -0.0024
     18 C         139.5762  140.5348  166.7968 C.ar    1  UNL1        0.0017
     19 C         140.2122  141.8925  166.8419 C.ar    1  UNL1       -0.0024
     20 C         140.5140  142.5358  168.1630 C.ar    1  UNL1       -0.0045
     21 N         141.8423  137.9417  157.9516 N.am    1  UNL1       -0.3032
     22 C         140.7212  137.5684  157.0275 C.2     1  UNL1        0.2425
     23 O         139.3428  138.1110  157.2631 O.2     1  UNL1       -0.2733
     24 H         142.7470  137.5856  157.7969 H       1  UNL1        0.1495
     25 C         140.9786  136.6526  155.8676 C.3     1  UNL1        0.1759
     26 N         141.6106  135.3117  156.0967 N.am    1  UNL1       -0.2931
     27 C         143.0984  135.2005  156.2521 C.2     1  UNL1        0.2462
     28 O         143.9542  136.4302  156.1784 O.2     1  UNL1       -0.2701
     29 H         141.0489  134.5046  156.1451 H       1  UNL1        0.1502
     30 C         143.7304  133.8596  156.4812 C.ar    1  UNL1        0.0533
     31 C         144.3468  133.5383  157.8104 C.ar    1  UNL1        0.0045
     32 C         144.9789  132.1973  158.0394 C.ar    1  UNL1        0.0001
     33 C         144.9945  131.1777  156.9394 C.ar    1  UNL1        0.0039
     34 C         144.3780  131.4991  155.6102 C.ar    1  UNL1        0.0716
     35 C         143.7460  132.8400  155.3811 C.ar    1  UNL1        0.0084
     36 C         144.3935  130.4794  154.5101 C.3     1  UNL1        0.4186
     37 F         144.4091  129.4599  153.4100 F       1  UNL1       -0.1659
     38 F         145.2575  129.5862  155.3501 F       1  UNL1       -0.1659
     39 F         143.5295  131.3727  153.6700 F       1  UNL1       -0.1659
@<TRIPOS>BOND
     1    14    15    1
     2    15    16   ar
     3    16    17   ar
     4    17    18   ar
     5    18     6    1
     6     6     7    1
     7     6     8    1
     8     8     9    1
     9     9    10    1
    10    10     1    1
    11     1     2    1
    12     2     3    1
    13     3     4    1
    14     4    21    1
    15    21    22   am
    16    22    23    2
    17    22    25    1
    18    25    26    1
    19    26    27   am
    20    27    28    2
    21    27    30    1
    22    30    31   ar
    23    31    32   ar
    24    32    33   ar
    25    33    34   ar
    26    34    36    1
    27    36    37    1
    28    36    38    1
    29    36    39    1
    30    34    35   ar
    31     4     5    1
    32    10    11    1
    33    11    12    1
    34    18    19   ar
    35    19    20   ar
    36    20    15   ar
    37    12     6    1
    38     5     1    1
    39    35    30   ar
    40     7    13    1
    41    21    24    1
    42    26    29    1
@<TRIPOS>MOLECULE
*****
 39 42 0 0 0
SMALL
GASTEIGER

@<TRIPOS>ATOM
      1 N         140.4663  139.5620  161.1322 N.3     1  UNL1       -0.2725
      2 C         141.2535  140.5891  160.3738 C.3     1  UNL1        0.0738
      3 C         141.4297  140.0939  158.9689 C.3     1  UNL1        0.0383
      4 C         140.7513  138.7605  158.8591 C.3     1  UNL1        0.0889
      5 C         140.1560  138.4318  160.1960 C.3     1  UNL1        0.0919
      6 C         139.2493  139.8243  165.4565 C.3     1  UNL1        0.1070
      7 O         138.2801  139.2017  166.4172 O.3     1  UNL1       -0.3827
      8 C         140.3392  140.7097  164.9291 C.3     1  UNL1        0.0325
      9 C         140.7449  140.6223  163.4876 C.3     1  UNL1        0.0187
     10 C         140.0607  139.6495  162.5736 C.3     1  UNL1        0.0577
     11 C         138.9708  138.7641  163.1010 C.3     1  UNL1        0.0187
     12 C         138.5651  138.8515  164.5425 C.3     1  UNL1        0.0325
     13 H         138.3906  139.6028  167.2935 H       1  UNL1        0.2107
     14 C         140.6397  142.8507  170.4473 C.3     1  UNL1        0.0310
     15 C         140.2921  142.0941  169.1996 C.ar    1  UNL1       -0.0219
     16 C         139.7702  140.6910  169.2941 C.ar    1  UNL1       -0.0045
     17 C         139.4226  139.9344  168.0464 C.ar    1  UNL1       -0.0024
     18 C         139.5969  140.5809  166.7042 C.ar    1  UNL1        0.0017
     19 C         140.1188  141.9840  166.6096 C.ar    1  UNL1       -0.0024
     20 C         140.4664  142.7406  167.8573 C.ar    1  UNL1       -0.0045
     21 N         140.6808  137.9060  157.6283 N.am    1  UNL1       -0.3032
     22 C         139.5775  138.1134  156.6335 C.2     1  UNL1        0.2425
     23 O         138.5447  139.1753  156.8694 O.2     1  UNL1       -0.2733
     24 H         141.3586  137.2090  157.4735 H       1  UNL1        0.1495
     25 C         139.5069  137.2588  155.4027 C.3     1  UNL1        0.1759
     26 N         140.2064  135.9323  155.3695 N.am    1  UNL1       -0.2931
     27 C         141.6927  135.8729  155.1762 C.2     1  UNL1        0.2462
     28 O         142.4795  137.1399  155.0161 O.2     1  UNL1       -0.2701
     29 H         139.6900  135.1008  155.4746 H       1  UNL1        0.1502
     30 C         142.3922  134.5464  155.1430 C.ar    1  UNL1        0.0533
     31 C         142.1245  133.5852  154.0230 C.ar    1  UNL1        0.0045
     32 C         142.8240  132.2587  153.9898 C.ar    1  UNL1        0.0001
     33 C         143.7912  131.8933  155.0766 C.ar    1  UNL1        0.0039
     34 C         144.0589  132.8546  156.1965 C.ar    1  UNL1        0.0716
     35 C         143.3594  134.1811  156.2297 C.ar    1  UNL1        0.0084
     36 C         145.0261  132.4893  157.2834 C.3     1  UNL1        0.4186
     37 F         145.9933  132.1241  158.3701 F       1  UNL1       -0.1659
     38 F         144.4413  133.5550  158.1621 F       1  UNL1       -0.1659
     39 F         145.6110  131.4235  156.4046 F       1  UNL1       -0.1659
@<TRIPOS>BOND
     1    14    15    1
     2    15    16   ar
     3    16    17   ar
     4    17    18   ar
     5    18     6    1
     6     6     7    1
     7     6     8    1
     8     8     9    1
     9     9    10    1
    10    10     1    1
    11     1     2    1
    12     2     3    1
    13     3     4    1
    14     4    21    1
    15    21    22   am
    16    22    23    2
    17    22    25    1
    18    25    26    1
    19    26    27   am
    20    27    28    2
    21    27    30    1
    22    30    31   ar
    23    31    32   ar
    24    32    33   ar
    25    33    34   ar
    26    34    36    1
    27    36    37    1
    28    36    38    1
    29    36    39    1
    30    34    35   ar
    31     4     5    1
    32    10    11    1
    33    11    12    1
    34    18    19   ar
    35    19    20   ar
    36    20    15   ar
    37    12     6    1
    38     5     1    1
    39    35    30   ar
    40     7    13    1
    41    21    24    1
    42    26    29    1
@<TRIPOS>MOLECULE
*****
 39 42 0 0 0
SMALL
GASTEIGER

@<TRIPOS>ATOM
      1 N         141.9158  140.3713  157.9584 N.3     1  UNL1       -0.2725
      2 C         141.5176  141.6397  157.2638 C.3     1  UNL1        0.0738
      3 C         141.0284  142.6037  158.3036 C.3     1  UNL1        0.0383
      4 C         141.1243  141.9311  159.6410 C.3     1  UNL1        0.0889
      5 C         141.6727  140.5514  159.4276 C.3     1  UNL1        0.0919
      6 C         143.5524  136.6747  155.9819 C.3     1  UNL1        0.1070
      7 O         144.6401  136.2642  155.0341 O.3     1  UNL1       -0.3827
      8 C         142.3772  136.5720  156.9084 C.3     1  UNL1        0.0325
      9 C         141.8316  137.8042  157.5672 C.3     1  UNL1        0.0187
     10 C         142.4613  139.1390  157.2996 C.3     1  UNL1        0.0577
     11 C         143.6365  139.2417  156.3732 C.3     1  UNL1        0.0187
     12 C         144.1821  138.0095  155.7143 C.3     1  UNL1        0.0325
     13 H         144.6017  135.3052  154.8936 H       1  UNL1        0.2107
     14 C         142.5448  130.7650  155.7357 C.3     1  UNL1        0.0310
     15 C         142.7967  132.2424  155.7973 C.ar    1  UNL1       -0.0219
     16 C         142.6033  133.0879  154.5735 C.ar    1  UNL1       -0.0045
     17 C         142.8552  134.5653  154.6350 C.ar    1  UNL1       -0.0024
     18 C         143.3005  135.1973  155.9204 C.ar    1  UNL1        0.0017
     19 C         143.4939  134.3518  157.1442 C.ar    1  UNL1       -0.0024
     20 C         143.2420  132.8744  157.0826 C.ar    1  UNL1       -0.0045
     21 N         140.7393  142.5326  160.9600 N.am    1  UNL1       -0.3032
     22 C         141.5636  143.6388  161.5490 C.2     1  UNL1        0.2425
     23 O         142.7729  144.1435  160.8189 O.2     1  UNL1       -0.2733
     24 H         139.9457  142.2014  161.4392 H       1  UNL1        0.1495
     25 C         141.1787  144.2404  162.8681 C.3     1  UNL1        0.1759
     26 N         141.0738  143.3718  164.0865 N.am    1  UNL1       -0.2931
     27 C         139.8235  142.5829  164.3398 C.2     1  UNL1        0.2462
     28 O         138.6779  142.6625  163.3747 O.2     1  UNL1       -0.2701
     29 H         141.8256  143.3195  164.7200 H       1  UNL1        0.1502
     30 C         139.7186  141.7143  165.5582 C.ar    1  UNL1        0.0533
     31 C         140.3641  142.1429  166.8426 C.ar    1  UNL1        0.0045
     32 C         140.2592  141.2743  168.0610 C.ar    1  UNL1        0.0001
     33 C         139.5090  139.9771  167.9951 C.ar    1  UNL1        0.0039
     34 C         138.8635  139.5485  166.7107 C.ar    1  UNL1        0.0716
     35 C         138.9684  140.4171  165.4923 C.ar    1  UNL1        0.0084
     36 C         138.1132  138.2513  166.6447 C.3     1  UNL1        0.4186
     37 F         137.3629  136.9541  166.5787 F       1  UNL1       -0.1659
     38 F         137.2635  138.6839  167.8026 F       1  UNL1       -0.1659
     39 F         138.9630  137.8187  165.4867 F       1  UNL1       -0.1659
@<TRIPOS>BOND
     1    14    15    1
     2    15    16   ar
     3    16    17   ar
     4    17    18   ar
     5    18     6    1
     6     6     7    1
     7     6     8    1
     8     8     9    1
     9     9    10    1
    10    10     1    1
    11     1     2    1
    12     2     3    1
    13     3     4    1
    14     4    21    1
    15    21    22   am
    16    22    23    2
    17    22    25    1
    18    25    26    1
    19    26    27   am
    20    27    28    2
    21    27    30    1
    22    30    31   ar
    23    31    32   ar
    24    32    33   ar
    25    33    34   ar
    26    34    36    1
    27    36    37    1
    28    36    38    1
    29    36    39    1
    30    34    35   ar
    31     4     5    1
    32    10    11    1
    33    11    12    1
    34    18    19   ar
    35    19    20   ar
    36    20    15   ar
    37    12     6    1
    38     5     1    1
    39    35    30   ar
    40     7    13    1
    41    21    24    1
    42    26    29    1
@<TRIPOS>MOLECULE
*****
 39 42 0 0 0
SMALL
GASTEIGER

@<TRIPOS>ATOM
      1 N         141.1067  139.3781  161.5375 N.3     1  UNL1       -0.2725
      2 C         140.1967  140.2409  160.7145 C.3     1  UNL1        0.0738
      3 C         140.2954  139.7897  159.2874 C.3     1  UNL1        0.0383
      4 C         141.2665  138.6480  159.2284 C.3     1  UNL1        0.0889
      5 C         141.7679  138.3936  160.6190 C.3     1  UNL1        0.0919
      6 C         141.7421  139.6883  165.9816 C.3     1  UNL1        0.1070
      7 O         142.5612  139.0631  167.0716 O.3     1  UNL1       -0.3827
      8 C         140.7512  140.5857  165.3012 C.3     1  UNL1        0.0325
      9 C         140.5394  140.4823  163.8198 C.3     1  UNL1        0.0187
     10 C         141.3185  139.4816  163.0188 C.3     1  UNL1        0.0577
     11 C         142.3093  138.5842  163.6992 C.3     1  UNL1        0.0187
     12 C         142.5211  138.6876  165.1806 C.3     1  UNL1        0.0325
     13 H         142.3435  139.4807  167.9196 H       1  UNL1        0.2107
     14 C         139.7638  142.8227  170.6998 C.3     1  UNL1        0.0310
     15 C         140.2584  142.0391  169.5202 C.ar    1  UNL1       -0.0219
     16 C         139.5706  140.7665  169.1236 C.ar    1  UNL1       -0.0045
     17 C         140.0652  139.9829  167.9440 C.ar    1  UNL1       -0.0024
     18 C         141.2475  140.4719  167.1611 C.ar    1  UNL1        0.0017
     19 C         141.9352  141.7445  167.5578 C.ar    1  UNL1       -0.0024
     20 C         141.4407  142.5281  168.7373 C.ar    1  UNL1       -0.0045
     21 N         141.6661  137.8932  157.9952 N.am    1  UNL1       -0.3032
     22 C         142.9650  138.2050  157.3130 C.2     1  UNL1        0.2425
     23 O         143.8645  139.2715  157.8639 O.2     1  UNL1       -0.2733
     24 H         141.0757  137.1932  157.6337 H       1  UNL1        0.1495
     25 C         143.3646  137.4502  156.0798 C.3     1  UNL1        0.1759
     26 N         143.4373  135.9522  156.1079 N.am    1  UNL1       -0.2931
     27 C         142.1934  135.1372  155.9120 C.2     1  UNL1        0.2462
     28 O         140.8767  135.8201  155.6881 O.2     1  UNL1       -0.2701
     29 H         144.3014  135.5039  156.2549 H       1  UNL1        0.1502
     30 C         142.2660  133.6392  155.9401 C.ar    1  UNL1        0.0533
     31 C         141.3395  132.8273  155.0844 C.ar    1  UNL1        0.0045
     32 C         141.4121  131.3293  155.1125 C.ar    1  UNL1        0.0001
     33 C         142.4113  130.6432  155.9963 C.ar    1  UNL1        0.0039
     34 C         143.3378  131.4552  156.8520 C.ar    1  UNL1        0.0716
     35 C         143.2651  132.9532  156.8239 C.ar    1  UNL1        0.0084
     36 C         144.3370  130.7692  157.7358 C.3     1  UNL1        0.4186
     37 F         145.3362  130.0833  158.6196 F       1  UNL1       -0.1659
     38 F         143.6993  129.4464  157.4301 F       1  UNL1       -0.1659
     39 F         144.9748  132.0921  158.0415 F       1  UNL1       -0.1659
@<TRIPOS>BOND
     1    14    15    1
     2    15    16   ar
     3    16    17   ar
     4    17    18   ar
     5    18     6    1
     6     6     7    1
     7     6     8    1
     8     8     9    1
     9     9    10    1
    10    10     1    1
    11     1     2    1
    12     2     3    1
    13     3     4    1
    14     4    21    1
    15    21    22   am
    16    22    23    2
    17    22    25    1
    18    25    26    1
    19    26    27   am
    20    27    28    2
    21    27    30    1
    22    30    31   ar
    23    31    32   ar
    24    32    33   ar
    25    33    34   ar
    26    34    36    1
    27    36    37    1
    28    36    38    1
    29    36    39    1
    30    34    35   ar
    31     4     5    1
    32    10    11    1
    33    11    12    1
    34    18    19   ar
    35    19    20   ar
    36    20    15   ar
    37    12     6    1
    38     5     1    1
    39    35    30   ar
    40     7    13    1
    41    21    24    1
    42    26    29    1
@<TRIPOS>MOLECULE
*****
 39 42 0 0 0
SMALL
GASTEIGER

@<TRIPOS>ATOM
      1 N         139.7821  142.7459  161.1705 N.3     1  UNL1       -0.2725
      2 C         140.8776  142.9763  160.1723 C.3     1  UNL1        0.0738
      3 C         140.2743  142.9188  158.8002 C.3     1  UNL1        0.0383
      4 C         138.8056  142.6529  158.9505 C.3     1  UNL1        0.0889
      5 C         138.5015  142.5461  160.4154 C.3     1  UNL1        0.0919
      6 C         140.2538  142.6682  165.6450 C.3     1  UNL1        0.1070
      7 O         139.9717  143.5225  166.8452 O.3     1  UNL1       -0.3827
      8 C         140.7176  141.5033  164.8217 C.3     1  UNL1        0.0325
      9 C         140.5604  141.5292  163.3301 C.3     1  UNL1        0.0187
     10 C         139.9394  142.7199  162.6620 C.3     1  UNL1        0.0577
     11 C         139.4756  143.8848  163.4854 C.3     1  UNL1        0.0187
     12 C         139.6328  143.8589  164.9769 C.3     1  UNL1        0.0325
     13 H         140.2650  143.0613  167.6466 H       1  UNL1        0.2107
     14 C         142.3459  139.0919  169.9848 C.3     1  UNL1        0.0310
     15 C         141.8229  139.9860  168.8999 C.ar    1  UNL1       -0.0219
     16 C         140.3849  139.8967  168.4826 C.ar    1  UNL1       -0.0045
     17 C         139.8619  140.7907  167.3976 C.ar    1  UNL1       -0.0024
     18 C         140.7768  141.7741  166.7300 C.ar    1  UNL1        0.0017
     19 C         142.2148  141.8634  167.1473 C.ar    1  UNL1       -0.0024
     20 C         142.7378  140.9693  168.2322 C.ar    1  UNL1       -0.0045
     21 N         137.8152  142.5176  157.8322 N.am    1  UNL1       -0.3032
     22 C         137.4570  141.1587  157.3079 C.2     1  UNL1        0.2425
     23 O         138.0894  139.9350  157.9018 O.2     1  UNL1       -0.2733
     24 H         137.4002  143.3208  157.4424 H       1  UNL1        0.1495
     25 C         136.4665  141.0234  156.1895 C.3     1  UNL1        0.1759
     26 N         135.0120  140.8226  156.4961 N.am    1  UNL1       -0.2931
     27 C         133.9806  141.0730  155.4361 C.2     1  UNL1        0.2462
     28 O         134.4037  141.5240  154.0695 O.2     1  UNL1       -0.2701
     29 H         134.7342  140.5266  157.3930 H       1  UNL1        0.1502
     30 C         132.5261  140.8723  155.7427 C.ar    1  UNL1        0.0533
     31 C         131.4902  141.6960  155.0366 C.ar    1  UNL1        0.0045
     32 C         130.0356  141.4953  155.3432 C.ar    1  UNL1        0.0001
     33 C         129.6169  140.4709  156.3558 C.ar    1  UNL1        0.0039
     34 C         130.6528  139.6472  157.0618 C.ar    1  UNL1        0.0716
     35 C         132.1073  139.8479  156.7552 C.ar    1  UNL1        0.0084
     36 C         130.2341  138.6228  158.0744 C.3     1  UNL1        0.4186
     37 F         129.8154  137.5984  159.0869 F       1  UNL1       -0.1659
     38 F         128.7944  138.8895  157.7490 F       1  UNL1       -0.1659
     39 F         131.6739  138.3560  158.3998 F       1  UNL1       -0.1659
@<TRIPOS>BOND
     1    14    15    1
     2    15    16   ar
     3    16    17   ar
     4    17    18   ar
     5    18     6    1
     6     6     7    1
     7     6     8    1
     8     8     9    1
     9     9    10    1
    10    10     1    1
    11     1     2    1
    12     2     3    1
    13     3     4    1
    14     4    21    1
    15    21    22   am
    16    22    23    2
    17    22    25    1
    18    25    26    1
    19    26    27   am
    20    27    28    2
    21    27    30    1
    22    30    31   ar
    23    31    32   ar
    24    32    33   ar
    25    33    34   ar
    26    34    36    1
    27    36    37    1
    28    36    38    1
    29    36    39    1
    30    34    35   ar
    31     4     5    1
    32    10    11    1
    33    11    12    1
    34    18    19   ar
    35    19    20   ar
    36    20    15   ar
    37    12     6    1
    38     5     1    1
    39    35    30   ar
    40     7    13    1
    41    21    24    1
    42    26    29    1
