@<TRIPOS>MOLECULE
*****
 30 32 0 0 0
SMALL
GASTEIGER

@<TRIPOS>ATOM
      1 C         140.1450  140.3928  167.8431 C.ar    1  UNL1        0.0555
      2 C         140.6172  140.3134  166.4216 C.ar    1  UNL1        0.0168
      3 C         139.7897  139.5979  165.3954 C.ar    1  UNL1        0.0505
      4 C         138.4900  138.9618  165.7906 C.ar    1  UNL1        0.0170
      5 C         138.0179  139.0412  167.2121 C.ar    1  UNL1        0.0307
      6 C         138.8453  139.7567  168.2383 C.ar    1  UNL1        0.1402
      7 F         138.3732  139.8362  169.6599 F       1  UNL1       -0.2044
      8 C         140.2101  142.2661  168.2964 C.3     1  UNL1        0.0638
      9 C         140.9725  141.1084  168.8695 C.3     1  UNL1        0.2513
     10 N         141.4476  139.7022  169.0861 N.2     1  UNL1       -0.0663
     11 C         142.4853  139.4136  170.1301 C.2     1  UNL1        0.3195
     12 N         142.9604  138.0074  170.3467 N.pl3   1  UNL1       -0.2480
     13 C         143.0480  140.5313  170.9573 C.3     1  UNL1        0.2611
     14 O         142.5729  141.9374  170.7407 O.3     1  UNL1       -0.3108
     15 C         141.5352  142.2260  169.6968 C.3     1  UNL1        0.3281
     16 F         141.0601  143.6322  169.4800 F       1  UNL1       -0.1989
     17 H         142.5911  137.2739  169.8037 H       1  UNL1        0.2882
     18 H         143.6415  137.8179  171.0319 H       1  UNL1        0.2882
     19 N         140.2619  139.5185  163.9738 N.am    1  UNL1       -0.2791
     20 C         141.0189  138.3128  163.5012 C.2     1  UNL1        0.2672
     21 O         141.3037  137.1866  164.4502 O.2     1  UNL1       -0.2682
     22 H         140.0750  140.2577  163.3510 H       1  UNL1        0.1552
     23 C         141.4911  138.2334  162.0797 C.ar    1  UNL1        0.1348
     24 C         142.9221  137.8962  161.7825 C.ar    1  UNL1        0.0245
     25 C         143.3943  137.8167  160.3609 C.ar    1  UNL1        0.0135
     26 C         142.4354  138.0744  159.2366 C.ar    1  UNL1        0.0876
     27 C         141.0043  138.4116  159.5338 C.ar    1  UNL1        0.1092
     28 N         140.5321  138.4911  160.9553 N.ar    1  UNL1       -0.2385
     29 C         142.9075  137.9950  157.8151 C.1     1  UNL1        0.1020
     30 N         143.3798  137.9154  156.3936 N.1     1  UNL1       -0.1908
@<TRIPOS>BOND
     1     9     8    1
     2     9     1    1
     3     1     2   ar
     4     2     3   ar
     5     3    19    1
     6    19    20   am
     7    20    21    2
     8    20    23    1
     9    23    24   ar
    10    24    25   ar
    11    25    26   ar
    12    26    29    1
    13    29    30    3
    14    26    27   ar
    15    27    28   ar
    16     3     4   ar
    17     4     5   ar
    18     5     6   ar
    19     6     7    1
    20     9    10    1
    21    10    11    2
    22    11    12    1
    23    11    13    1
    24    13    14    1
    25    14    15    1
    26    15    16    1
    27    15     9    1
    28     6     1   ar
    29    28    23   ar
    30    19    22    1
    31    12    17    1
    32    12    18    1
@<TRIPOS>MOLECULE
*****
 30 32 0 0 0
SMALL
GASTEIGER

@<TRIPOS>ATOM
      1 C         141.5315  140.3766  167.4198 C.ar    1  UNL1        0.0555
      2 C         141.1408  141.1039  166.1675 C.ar    1  UNL1        0.0168
      3 C         141.7930  140.7545  164.8628 C.ar    1  UNL1        0.0505
      4 C         142.8361  139.6778  164.8103 C.ar    1  UNL1        0.0170
      5 C         143.2268  138.9505  166.0626 C.ar    1  UNL1        0.0307
      6 C         142.5745  139.2999  167.3674 C.ar    1  UNL1        0.1402
      7 F         142.9652  138.5726  168.6198 F       1  UNL1       -0.2044
      8 C         139.7910  139.9026  168.1017 C.3     1  UNL1        0.0638
      9 C         140.8792  140.7261  168.7246 C.3     1  UNL1        0.2513
     10 N         142.1938  141.4281  168.8944 N.2     1  UNL1       -0.0663
     11 C         142.4783  142.1936  170.1526 C.2     1  UNL1        0.3195
     12 N         143.7930  142.8956  170.3224 N.pl3   1  UNL1       -0.2480
     13 C         141.4480  142.2570  171.2411 C.3     1  UNL1        0.2611
     14 O         140.1334  141.5550  171.0713 O.3     1  UNL1       -0.3108
     15 C         139.8490  140.7895  169.8131 C.3     1  UNL1        0.3281
     16 F         138.5343  140.0874  169.6432 F       1  UNL1       -0.1989
     17 H         144.4691  142.8540  169.6080 H       1  UNL1        0.2882
     18 H         143.9797  143.3980  171.1482 H       1  UNL1        0.2882
     19 N         141.4023  141.4818  163.6104 N.am    1  UNL1       -0.2791
     20 C         141.9639  142.8437  163.3278 C.2     1  UNL1        0.2672
     21 O         142.9162  143.4783  164.2976 O.2     1  UNL1       -0.2682
     22 H         140.7773  141.0653  162.9739 H       1  UNL1        0.1552
     23 C         141.5733  143.5710  162.0755 C.ar    1  UNL1        0.1348
     24 C         140.6580  144.7570  162.1514 C.ar    1  UNL1        0.0245
     25 C         140.2673  145.4843  160.8990 C.ar    1  UNL1        0.0135
     26 C         140.7919  145.0257  159.5707 C.ar    1  UNL1        0.0876
     27 C         141.7072  143.8397  159.4948 C.ar    1  UNL1        0.1092
     28 N         142.0979  143.1124  160.7471 N.ar    1  UNL1       -0.2385
     29 C         140.4013  145.7530  158.3184 C.1     1  UNL1        0.1020
     30 N         140.0105  146.4803  157.0660 N.1     1  UNL1       -0.1908
@<TRIPOS>BOND
     1     9     8    1
     2     9     1    1
     3     1     2   ar
     4     2     3   ar
     5     3    19    1
     6    19    20   am
     7    20    21    2
     8    20    23    1
     9    23    24   ar
    10    24    25   ar
    11    25    26   ar
    12    26    29    1
    13    29    30    3
    14    26    27   ar
    15    27    28   ar
    16     3     4   ar
    17     4     5   ar
    18     5     6   ar
    19     6     7    1
    20     9    10    1
    21    10    11    2
    22    11    12    1
    23    11    13    1
    24    13    14    1
    25    14    15    1
    26    15    16    1
    27    15     9    1
    28     6     1   ar
    29    28    23   ar
    30    19    22    1
    31    12    17    1
    32    12    18    1
@<TRIPOS>MOLECULE
*****
 30 32 0 0 0
SMALL
GASTEIGER

@<TRIPOS>ATOM
      1 C         140.2444  140.0240  167.5079 C.ar    1  UNL1        0.0555
      2 C         140.8760  139.6464  166.2009 C.ar    1  UNL1        0.0168
      3 C         140.1198  138.8016  165.2189 C.ar    1  UNL1        0.0505
      4 C         138.7320  138.3344  165.5439 C.ar    1  UNL1        0.0170
      5 C         138.1003  138.7120  166.8509 C.ar    1  UNL1        0.0307
      6 C         138.8565  139.5568  167.8329 C.ar    1  UNL1        0.1402
      7 F         138.2249  139.9345  169.1400 F       1  UNL1       -0.2044
      8 C         140.2473  141.9367  167.7536 C.3     1  UNL1        0.0638
      9 C         141.0006  140.8689  168.4900 C.3     1  UNL1        0.2513
     10 N         141.4912  139.5077  168.8854 N.2     1  UNL1       -0.0663
     11 C         142.4764  139.3621  170.0070 C.2     1  UNL1        0.3195
     12 N         142.9671  138.0009  170.4024 N.pl3   1  UNL1       -0.2480
     13 C         142.9710  140.5779  170.7334 C.3     1  UNL1        0.2611
     14 O         142.4803  141.9390  170.3380 O.3     1  UNL1       -0.3108
     15 C         141.4951  142.0846  169.2163 C.3     1  UNL1        0.3281
     16 F         141.0044  143.4458  168.8209 F       1  UNL1       -0.1989
     17 H         142.6425  137.2030  169.9257 H       1  UNL1        0.2882
     18 H         143.6137  137.9053  171.1386 H       1  UNL1        0.2882
     19 N         140.7515  138.4239  163.9117 N.am    1  UNL1       -0.2791
     20 C         140.4171  139.1922  162.6675 C.2     1  UNL1        0.2672
     21 O         139.4512  140.3381  162.7305 O.2     1  UNL1       -0.2682
     22 H         141.3854  137.6719  163.8705 H       1  UNL1        0.1552
     23 C         141.0487  138.8146  161.3605 C.ar    1  UNL1        0.1348
     24 C         140.4206  139.2511  160.0702 C.ar    1  UNL1        0.0245
     25 C         141.0522  138.8734  158.7630 C.ar    1  UNL1        0.0135
     26 C         142.3119  138.0594  158.7463 C.ar    1  UNL1        0.0876
     27 C         142.9401  137.6229  160.0366 C.ar    1  UNL1        0.1092
     28 N         142.3085  138.0005  161.3437 N.ar    1  UNL1       -0.2385
     29 C         142.9435  137.6818  157.4392 C.1     1  UNL1        0.1020
     30 N         143.5752  137.3042  156.1321 N.1     1  UNL1       -0.1908
@<TRIPOS>BOND
     1     9     8    1
     2     9     1    1
     3     1     2   ar
     4     2     3   ar
     5     3    19    1
     6    19    20   am
     7    20    21    2
     8    20    23    1
     9    23    24   ar
    10    24    25   ar
    11    25    26   ar
    12    26    29    1
    13    29    30    3
    14    26    27   ar
    15    27    28   ar
    16     3     4   ar
    17     4     5   ar
    18     5     6   ar
    19     6     7    1
    20     9    10    1
    21    10    11    2
    22    11    12    1
    23    11    13    1
    24    13    14    1
    25    14    15    1
    26    15    16    1
    27    15     9    1
    28     6     1   ar
    29    28    23   ar
    30    19    22    1
    31    12    17    1
    32    12    18    1
@<TRIPOS>MOLECULE
*****
 30 32 0 0 0
SMALL
GASTEIGER

@<TRIPOS>ATOM
      1 C         142.5493  140.9187  168.0234 C.ar    1  UNL1        0.0555
      2 C         142.5722  141.7093  166.7489 C.ar    1  UNL1        0.0168
      3 C         142.8297  141.0187  165.4425 C.ar    1  UNL1        0.0505
      4 C         143.0644  139.5375  165.4107 C.ar    1  UNL1        0.0170
      5 C         143.0415  138.7469  166.6852 C.ar    1  UNL1        0.0307
      6 C         142.7840  139.4376  167.9916 C.ar    1  UNL1        0.1402
      7 F         142.7610  138.6470  169.2662 F       1  UNL1       -0.2044
      8 C         143.6422  142.1725  168.9994 C.3     1  UNL1        0.0638
      9 C         142.2917  141.6094  169.3299 C.3     1  UNL1        0.2513
     10 N         141.0307  140.8065  169.2067 N.2     1  UNL1       -0.0663
     11 C         139.9812  140.8897  170.2751 C.2     1  UNL1        0.3195
     12 N         138.7201  140.0867  170.1518 N.pl3   1  UNL1       -0.2480
     13 C         140.1926  141.7759  171.4667 C.3     1  UNL1        0.2611
     14 O         141.4536  142.5788  171.5899 O.3     1  UNL1       -0.3108
     15 C         142.5032  142.4956  170.5215 C.3     1  UNL1        0.3281
     16 F         143.7642  143.2985  170.6447 F       1  UNL1       -0.1989
     17 H         138.5814  139.5051  169.3697 H       1  UNL1        0.2882
     18 H         138.0313  140.1414  170.8530 H       1  UNL1        0.2882
     19 N         142.8527  141.8092  164.1679 N.am    1  UNL1       -0.2791
     20 C         141.5661  142.1741  163.4885 C.2     1  UNL1        0.2672
     21 O         140.2566  141.7484  164.0836 O.2     1  UNL1       -0.2682
     22 H         143.7121  142.0886  163.7773 H       1  UNL1        0.1552
     23 C         141.5890  142.9646  162.2139 C.ar    1  UNL1        0.1348
     24 C         142.3926  142.4787  161.0443 C.ar    1  UNL1        0.0245
     25 C         142.4155  143.2693  159.7697 C.ar    1  UNL1        0.0135
     26 C         141.6346  144.5457  159.6648 C.ar    1  UNL1        0.0876
     27 C         140.8310  145.0316  160.8344 C.ar    1  UNL1        0.1092
     28 N         140.8081  144.2411  162.1089 N.ar    1  UNL1       -0.2385
     29 C         141.6575  145.3362  158.3902 C.1     1  UNL1        0.1020
     30 N         141.6803  146.1267  157.1156 N.1     1  UNL1       -0.1908
@<TRIPOS>BOND
     1     9     8    1
     2     9     1    1
     3     1     2   ar
     4     2     3   ar
     5     3    19    1
     6    19    20   am
     7    20    21    2
     8    20    23    1
     9    23    24   ar
    10    24    25   ar
    11    25    26   ar
    12    26    29    1
    13    29    30    3
    14    26    27   ar
    15    27    28   ar
    16     3     4   ar
    17     4     5   ar
    18     5     6   ar
    19     6     7    1
    20     9    10    1
    21    10    11    2
    22    11    12    1
    23    11    13    1
    24    13    14    1
    25    14    15    1
    26    15    16    1
    27    15     9    1
    28     6     1   ar
    29    28    23   ar
    30    19    22    1
    31    12    17    1
    32    12    18    1
@<TRIPOS>MOLECULE
*****
 30 32 0 0 0
SMALL
GASTEIGER

@<TRIPOS>ATOM
      1 C         140.4806  140.3904  167.5004 C.ar    1  UNL1        0.0555
      2 C         141.2361  140.3040  166.2075 C.ar    1  UNL1        0.0168
      3 C         140.6392  139.5805  165.0369 C.ar    1  UNL1        0.0505
      4 C         139.2867  138.9434  165.1594 C.ar    1  UNL1        0.0170
      5 C         138.5312  139.0297  166.4523 C.ar    1  UNL1        0.0307
      6 C         139.1282  139.7532  167.6228 C.ar    1  UNL1        0.1402
      7 F         138.3727  139.8396  168.9158 F       1  UNL1       -0.2044
      8 C         140.3578  142.2480  168.0032 C.3     1  UNL1        0.0638
      9 C         141.0775  141.1139  168.6710 C.3     1  UNL1        0.2513
     10 N         141.5899  139.7286  168.9322 N.2     1  UNL1       -0.0663
     11 C         142.4492  139.4607  170.1321 C.2     1  UNL1        0.3195
     12 N         142.9616  138.0752  170.3934 N.pl3   1  UNL1       -0.2480
     13 C         142.7962  140.5781  171.0708 C.3     1  UNL1        0.2611
     14 O         142.2838  141.9634  170.8095 O.3     1  UNL1       -0.3108
     15 C         141.4245  142.2314  169.6096 C.3     1  UNL1        0.3281
     16 F         140.9121  143.6167  169.3483 F       1  UNL1       -0.1989
     17 H         142.7339  137.3419  169.7773 H       1  UNL1        0.2882
     18 H         143.5256  137.8993  171.1809 H       1  UNL1        0.2882
     19 N         141.3946  139.4941  163.7439 N.am    1  UNL1       -0.2791
     20 C         141.3857  140.6527  162.7912 C.2     1  UNL1        0.2672
     21 O         140.6212  141.8976  163.1315 O.2     1  UNL1       -0.2682
     22 H         141.8964  138.6770  163.5206 H       1  UNL1        0.1552
     23 C         142.1411  140.5663  161.4982 C.ar    1  UNL1        0.1348
     24 C         142.5455  139.2284  160.9538 C.ar    1  UNL1        0.0245
     25 C         143.3010  139.1421  159.6607 C.ar    1  UNL1        0.0135
     26 C         143.6520  140.3937  158.9122 C.ar    1  UNL1        0.0876
     27 C         143.2476  141.7316  159.4567 C.ar    1  UNL1        0.1092
     28 N         142.4922  141.8179  160.7497 N.ar    1  UNL1       -0.2385
     29 C         144.4074  140.3073  157.6193 C.1     1  UNL1        0.1020
     30 N         145.1629  140.2209  156.3262 N.1     1  UNL1       -0.1908
@<TRIPOS>BOND
     1     9     8    1
     2     9     1    1
     3     1     2   ar
     4     2     3   ar
     5     3    19    1
     6    19    20   am
     7    20    21    2
     8    20    23    1
     9    23    24   ar
    10    24    25   ar
    11    25    26   ar
    12    26    29    1
    13    29    30    3
    14    26    27   ar
    15    27    28   ar
    16     3     4   ar
    17     4     5   ar
    18     5     6   ar
    19     6     7    1
    20     9    10    1
    21    10    11    2
    22    11    12    1
    23    11    13    1
    24    13    14    1
    25    14    15    1
    26    15    16    1
    27    15     9    1
    28     6     1   ar
    29    28    23   ar
    30    19    22    1
    31    12    17    1
    32    12    18    1
@<TRIPOS>MOLECULE
*****
 30 32 0 0 0
SMALL
GASTEIGER

@<TRIPOS>ATOM
      1 C         142.0696  140.3581  167.5741 C.ar    1  UNL1        0.0555
      2 C         141.9046  140.9039  166.1868 C.ar    1  UNL1        0.0168
      3 C         142.4818  140.1644  165.0164 C.ar    1  UNL1        0.0505
      4 C         143.2240  138.8791  165.2333 C.ar    1  UNL1        0.0170
      5 C         143.3891  138.3333  166.6206 C.ar    1  UNL1        0.0307
      6 C         142.8119  139.0728  167.7911 C.ar    1  UNL1        0.1402
      7 F         142.9769  138.5270  169.1785 F       1  UNL1       -0.2044
      8 C         140.2611  140.4039  168.2419 C.3     1  UNL1        0.0638
      9 C         141.4924  141.0976  168.7447 C.3     1  UNL1        0.2513
     10 N         142.9241  141.5345  168.8409 N.2     1  UNL1       -0.0663
     11 C         143.3510  142.4699  169.9330 C.2     1  UNL1        0.3195
     12 N         144.7828  142.9067  170.0292 N.pl3   1  UNL1       -0.2480
     13 C         142.3461  142.9684  170.9289 C.3     1  UNL1        0.2611
     14 O         140.9145  142.5316  170.8327 O.3     1  UNL1       -0.3108
     15 C         140.4875  141.5961  169.7406 C.3     1  UNL1        0.3281
     16 F         139.0558  141.1592  169.6442 F       1  UNL1       -0.1989
     17 H         145.4423  142.5795  169.3756 H       1  UNL1        0.2882
     18 H         145.0630  143.5207  170.7460 H       1  UNL1        0.2882
     19 N         142.3167  140.7102  163.6289 N.am    1  UNL1       -0.2791
     20 C         143.4740  141.3710  162.9404 C.2     1  UNL1        0.2672
     21 O         144.7963  141.4859  163.6393 O.2     1  UNL1       -0.2682
     22 H         141.4489  140.6348  163.1702 H       1  UNL1        0.1552
     23 C         143.3090  141.9168  161.5530 C.ar    1  UNL1        0.1348
     24 C         144.5177  142.2411  160.7260 C.ar    1  UNL1        0.0245
     25 C         144.3527  142.7869  159.3385 C.ar    1  UNL1        0.0135
     26 C         142.9790  143.0084  158.7782 C.ar    1  UNL1        0.0876
     27 C         141.7704  142.6841  159.6052 C.ar    1  UNL1        0.1092
     28 N         141.9354  142.1383  160.9926 N.ar    1  UNL1       -0.2385
     29 C         142.8141  143.5542  157.3908 C.1     1  UNL1        0.1020
     30 N         142.6491  144.1000  156.0033 N.1     1  UNL1       -0.1908
@<TRIPOS>BOND
     1     9     8    1
     2     9     1    1
     3     1     2   ar
     4     2     3   ar
     5     3    19    1
     6    19    20   am
     7    20    21    2
     8    20    23    1
     9    23    24   ar
    10    24    25   ar
    11    25    26   ar
    12    26    29    1
    13    29    30    3
    14    26    27   ar
    15    27    28   ar
    16     3     4   ar
    17     4     5   ar
    18     5     6   ar
    19     6     7    1
    20     9    10    1
    21    10    11    2
    22    11    12    1
    23    11    13    1
    24    13    14    1
    25    14    15    1
    26    15    16    1
    27    15     9    1
    28     6     1   ar
    29    28    23   ar
    30    19    22    1
    31    12    17    1
    32    12    18    1
@<TRIPOS>MOLECULE
*****
 30 32 0 0 0
SMALL
GASTEIGER

@<TRIPOS>ATOM
      1 C         140.4131  141.3739  167.6926 C.ar    1  UNL1        0.0555
      2 C         140.8680  141.9242  166.3735 C.ar    1  UNL1        0.0168
      3 C         140.3225  141.3575  165.0963 C.ar    1  UNL1        0.0505
      4 C         139.3223  140.2405  165.1382 C.ar    1  UNL1        0.0170
      5 C         138.8674  139.6902  166.4574 C.ar    1  UNL1        0.0307
      6 C         139.4128  140.2569  167.7346 C.ar    1  UNL1        0.1402
      7 F         138.9580  139.7067  169.0539 F       1  UNL1       -0.2044
      8 C         140.2479  143.1472  168.4321 C.3     1  UNL1        0.0638
      9 C         140.9585  141.9407  168.9699 C.3     1  UNL1        0.2513
     10 N         141.4798  140.5374  169.0641 N.2     1  UNL1       -0.0663
     11 C         142.2996  140.1197  170.2488 C.2     1  UNL1        0.3195
     12 N         142.8209  138.7163  170.3430 N.pl3   1  UNL1       -0.2480
     13 C         142.5982  141.1055  171.3393 C.3     1  UNL1        0.2611
     14 O         142.0770  142.5089  171.2451 O.3     1  UNL1       -0.3108
     15 C         141.2571  142.9265  170.0604 C.3     1  UNL1        0.3281
     16 F         140.7358  144.3298  169.9661 F       1  UNL1       -0.1989
     17 H         142.6249  138.0694  169.6273 H       1  UNL1        0.2882
     18 H         143.3590  138.4422  171.1205 H       1  UNL1        0.2882
     19 N         140.7774  141.9077  163.7770 N.am    1  UNL1       -0.2791
     20 C         139.9511  142.9412  163.0704 C.2     1  UNL1        0.2672
     21 O         138.6700  143.4244  163.6831 O.2     1  UNL1       -0.2682
     22 H         141.6182  141.5906  163.3749 H       1  UNL1        0.1552
     23 C         140.4059  143.4915  161.7512 C.ar    1  UNL1        0.1348
     24 C         140.9995  142.5765  160.7214 C.ar    1  UNL1        0.0245
     25 C         141.4543  143.1269  159.4022 C.ar    1  UNL1        0.0135
     26 C         141.3154  144.5921  159.1128 C.ar    1  UNL1        0.0876
     27 C         140.7218  145.5070  160.1426 C.ar    1  UNL1        0.1092
     28 N         140.2671  144.9568  161.4618 N.ar    1  UNL1       -0.2385
     29 C         141.7702  145.1423  157.7936 C.1     1  UNL1        0.1020
     30 N         142.2250  145.6927  156.4743 N.1     1  UNL1       -0.1908
@<TRIPOS>BOND
     1     9     8    1
     2     9     1    1
     3     1     2   ar
     4     2     3   ar
     5     3    19    1
     6    19    20   am
     7    20    21    2
     8    20    23    1
     9    23    24   ar
    10    24    25   ar
    11    25    26   ar
    12    26    29    1
    13    29    30    3
    14    26    27   ar
    15    27    28   ar
    16     3     4   ar
    17     4     5   ar
    18     5     6   ar
    19     6     7    1
    20     9    10    1
    21    10    11    2
    22    11    12    1
    23    11    13    1
    24    13    14    1
    25    14    15    1
    26    15    16    1
    27    15     9    1
    28     6     1   ar
    29    28    23   ar
    30    19    22    1
    31    12    17    1
    32    12    18    1
@<TRIPOS>MOLECULE
*****
 30 32 0 0 0
SMALL
GASTEIGER

@<TRIPOS>ATOM
      1 C         140.3950  140.6539  166.7585 C.ar    1  UNL1        0.0555
      2 C         140.6848  141.3013  165.4368 C.ar    1  UNL1        0.0168
      3 C         139.6903  141.2007  164.3184 C.ar    1  UNL1        0.0505
      4 C         138.4060  140.4529  164.5217 C.ar    1  UNL1        0.0170
      5 C         138.1162  139.8055  165.8434 C.ar    1  UNL1        0.0307
      6 C         139.1107  139.9060  166.9618 C.ar    1  UNL1        0.1402
      7 F         138.8209  139.2586  168.2836 F       1  UNL1       -0.2044
      8 C         141.8476  139.4785  167.2350 C.3     1  UNL1        0.0638
      9 C         141.3895  140.7544  167.8770 C.3     1  UNL1        0.2513
     10 N         140.5860  141.9954  168.1306 N.2     1  UNL1       -0.0663
     11 C         140.9361  142.8938  169.2796 C.2     1  UNL1        0.3195
     12 N         140.1326  144.1349  169.5332 N.pl3   1  UNL1       -0.2480
     13 C         142.0897  142.5511  170.1751 C.3     1  UNL1        0.2611
     14 O         142.8931  141.3101  169.9215 O.3     1  UNL1       -0.3108
     15 C         142.5431  140.4117  168.7725 C.3     1  UNL1        0.3281
     16 F         143.3465  139.1707  168.5189 F       1  UNL1       -0.1989
     17 H         139.3755  144.3597  168.9454 H       1  UNL1        0.2882
     18 H         140.3624  144.7245  170.2873 H       1  UNL1        0.2882
     19 N         139.9800  141.8481  162.9967 N.am    1  UNL1       -0.2791
     20 C         139.3848  143.1857  162.6702 C.2     1  UNL1        0.2672
     21 O         138.4999  143.8759  163.6655 O.2     1  UNL1       -0.2682
     22 H         140.5609  141.3951  162.3435 H       1  UNL1        0.1552
     23 C         139.6746  143.8331  161.3485 C.ar    1  UNL1        0.1348
     24 C         139.8268  142.9896  160.1175 C.ar    1  UNL1        0.0245
     25 C         140.1165  143.6370  158.7958 C.ar    1  UNL1        0.0135
     26 C         140.2540  145.1279  158.7051 C.ar    1  UNL1        0.0876
     27 C         140.1018  145.9715  159.9360 C.ar    1  UNL1        0.1092
     28 N         139.8121  145.3241  161.2577 N.ar    1  UNL1       -0.2385
     29 C         140.5437  145.7753  157.3834 C.1     1  UNL1        0.1020
     30 N         140.8335  146.4227  156.0616 N.1     1  UNL1       -0.1908
@<TRIPOS>BOND
     1     9     8    1
     2     9     1    1
     3     1     2   ar
     4     2     3   ar
     5     3    19    1
     6    19    20   am
     7    20    21    2
     8    20    23    1
     9    23    24   ar
    10    24    25   ar
    11    25    26   ar
    12    26    29    1
    13    29    30    3
    14    26    27   ar
    15    27    28   ar
    16     3     4   ar
    17     4     5   ar
    18     5     6   ar
    19     6     7    1
    20     9    10    1
    21    10    11    2
    22    11    12    1
    23    11    13    1
    24    13    14    1
    25    14    15    1
    26    15    16    1
    27    15     9    1
    28     6     1   ar
    29    28    23   ar
    30    19    22    1
    31    12    17    1
    32    12    18    1
@<TRIPOS>MOLECULE
*****
 30 32 0 0 0
SMALL
GASTEIGER

@<TRIPOS>ATOM
      1 C         143.5411  142.0395  164.1500 C.ar    1  UNL1        0.0555
      2 C         143.3171  142.3743  162.7052 C.ar    1  UNL1        0.0168
      3 C         143.3417  143.8047  162.2542 C.ar    1  UNL1        0.0505
      4 C         143.5903  144.9003  163.2482 C.ar    1  UNL1        0.0170
      5 C         143.8143  144.5655  164.6930 C.ar    1  UNL1        0.0307
      6 C         143.7897  143.1351  165.1440 C.ar    1  UNL1        0.1402
      7 F         144.0137  142.8002  166.5889 F       1  UNL1       -0.2044
      8 C         144.9744  140.7559  164.2798 C.3     1  UNL1        0.0638
      9 C         143.5165  140.6091  164.6010 C.3     1  UNL1        0.2513
     10 N         142.0673  140.9590  164.7656 N.2     1  UNL1       -0.0663
     11 C         141.0997  139.9295  165.2696 C.2     1  UNL1        0.3195
     12 N         139.6504  140.2795  165.4342 N.pl3   1  UNL1       -0.2480
     13 C         141.5815  138.5501  165.6090 C.3     1  UNL1        0.2611
     14 O         143.0307  138.2002  165.4445 O.3     1  UNL1       -0.3108
     15 C         143.9983  139.2297  164.9405 C.3     1  UNL1        0.3281
     16 F         145.4476  138.8798  164.7759 F       1  UNL1       -0.1989
     17 H         139.3342  141.1849  165.2114 H       1  UNL1        0.2882
     18 H         139.0153  139.6039  165.7650 H       1  UNL1        0.2882
     19 N         143.1177  144.1395  160.8093 N.am    1  UNL1       -0.2791
     20 C         141.7452  144.5075  160.3288 C.2     1  UNL1        0.2672
     21 O         140.5968  144.5407  161.2932 O.2     1  UNL1       -0.2682
     22 H         143.8715  144.1177  160.1763 H       1  UNL1        0.1552
     23 C         141.5212  144.8424  158.8839 C.ar    1  UNL1        0.1348
     24 C         142.4696  144.3319  157.8399 C.ar    1  UNL1        0.0245
     25 C         142.2455  144.6668  156.3950 C.ar    1  UNL1        0.0135
     26 C         141.0731  145.5121  155.9941 C.ar    1  UNL1        0.0876
     27 C         140.1247  146.0226  157.0381 C.ar    1  UNL1        0.1092
     28 N         140.3487  145.6877  158.4830 N.ar    1  UNL1       -0.2385
     29 C         140.8490  145.8470  154.5493 C.1     1  UNL1        0.1020
     30 N         140.6250  146.1818  153.1043 N.1     1  UNL1       -0.1908
@<TRIPOS>BOND
     1     9     8    1
     2     9     1    1
     3     1     2   ar
     4     2     3   ar
     5     3    19    1
     6    19    20   am
     7    20    21    2
     8    20    23    1
     9    23    24   ar
    10    24    25   ar
    11    25    26   ar
    12    26    29    1
    13    29    30    3
    14    26    27   ar
    15    27    28   ar
    16     3     4   ar
    17     4     5   ar
    18     5     6   ar
    19     6     7    1
    20     9    10    1
    21    10    11    2
    22    11    12    1
    23    11    13    1
    24    13    14    1
    25    14    15    1
    26    15    16    1
    27    15     9    1
    28     6     1   ar
    29    28    23   ar
    30    19    22    1
    31    12    17    1
    32    12    18    1
