@<TRIPOS>MOLECULE
*****
 27 29 0 0 0
SMALL
GASTEIGER

@<TRIPOS>ATOM
      1 C         141.7646  141.5719  165.8385 C.3     1  UNL1        0.1751
      2 C         143.0250  141.7226  165.0393 C.ar    1  UNL1        0.0089
      3 C         143.6085  142.8870  164.2952 C.ar    1  UNL1       -0.0021
      4 C         144.9140  142.7367  163.5720 C.ar    1  UNL1       -0.0003
      5 C         145.6360  141.4221  163.5929 C.ar    1  UNL1        0.0001
      6 C         145.0525  140.2577  164.3370 C.ar    1  UNL1        0.0043
      7 C         143.7470  140.4080  165.0602 C.ar    1  UNL1        0.0516
      8 C         142.9328  139.4449  165.8723 C.2     1  UNL1        0.2493
      9 O         143.2825  138.0136  166.1539 O.2     1  UNL1       -0.2699
     10 N         141.7076  140.1642  166.3533 N.am    1  UNL1       -0.2658
     11 N         140.1057  143.3479  164.9196 N.am    1  UNL1       -0.3027
     12 C         140.7409  142.6413  166.0804 C.2     1  UNL1        0.2449
     13 O         140.3523  143.0042  167.4829 O.2     1  UNL1       -0.2729
     14 H         140.3608  143.1098  163.9990 H       1  UNL1        0.1495
     15 C         139.0820  144.4173  165.1615 C.3     1  UNL1        0.0894
     16 C         137.7249  143.9222  163.0021 C.3     1  UNL1        0.0018
     17 C         137.7735  144.3822  164.4290 C.3     1  UNL1        0.0212
     18 C         140.6170  139.5787  167.2005 C.3     1  UNL1        0.0987
     19 C         139.2863  139.2525  166.5899 C.3     1  UNL1        0.0422
     20 C         138.0708  139.1324  167.4606 C.3     1  UNL1        0.0065
     21 C         139.1711  139.0465  165.1086 C.ar    1  UNL1       -0.0208
     22 C         139.7885  137.8383  164.4691 C.ar    1  UNL1       -0.0034
     23 C         139.6733  137.6323  162.9878 C.ar    1  UNL1        0.0111
     24 C         138.9407  138.6345  162.1460 C.ar    1  UNL1        0.0577
     25 CL        138.8255  138.4284  160.6647 Cl      1  UNL1       -0.0822
     26 C         138.3232  139.8428  162.7854 C.ar    1  UNL1        0.0111
     27 C         138.4384  140.0488  164.2667 C.ar    1  UNL1       -0.0034
@<TRIPOS>BOND
     1    16    17    1
     2    17    15    1
     3    15    11    1
     4    11    12   am
     5    12    13    2
     6    12     1    1
     7     1     2    1
     8     2     3   ar
     9     3     4   ar
    10     4     5   ar
    11     5     6   ar
    12     6     7   ar
    13     7     8    1
    14     8     9    2
    15     8    10   am
    16    10    18    1
    17    18    19    1
    18    19    20    1
    19    19    21    1
    20    21    22   ar
    21    22    23   ar
    22    23    24   ar
    23    24    25    1
    24    24    26   ar
    25    26    27   ar
    26    10     1    1
    27    27    21   ar
    28     7     2   ar
    29    11    14    1
@<TRIPOS>MOLECULE
*****
 27 29 0 0 0
SMALL
GASTEIGER

@<TRIPOS>ATOM
      1 C         140.6536  139.9998  166.4706 C.3     1  UNL1        0.1751
      2 C         140.8634  140.2784  167.9295 C.ar    1  UNL1        0.0089
      3 C         140.0589  141.0558  168.9287 C.ar    1  UNL1       -0.0021
      4 C         140.5285  141.1630  170.3492 C.ar    1  UNL1       -0.0003
      5 C         141.8026  140.4928  170.7706 C.ar    1  UNL1        0.0001
      6 C         142.6071  139.7154  169.7714 C.ar    1  UNL1        0.0043
      7 C         142.1375  139.6082  168.3509 C.ar    1  UNL1        0.0516
      8 C         142.7151  138.9154  167.1524 C.2     1  UNL1        0.2493
      9 O         143.9866  138.1202  167.1214 O.2     1  UNL1       -0.2699
     10 N         141.7980  139.1574  165.9903 N.am    1  UNL1       -0.2658
     11 N         139.3046  141.9481  165.4056 N.am    1  UNL1       -0.3027
     12 C         139.5016  140.4794  165.6382 C.2     1  UNL1        0.2449
     13 O         138.5467  139.4904  165.0384 O.2     1  UNL1       -0.2729
     14 H         139.9314  142.5973  165.7992 H       1  UNL1        0.1495
     15 C         138.1526  142.4277  164.5731 C.3     1  UNL1        0.0894
     16 C         138.5809  144.8645  165.3659 C.3     1  UNL1        0.0018
     17 C         137.8490  143.8941  164.4868 C.3     1  UNL1        0.0212
     18 C         141.9914  138.6467  164.5933 C.3     1  UNL1        0.0987
     19 C         142.9228  139.3578  163.6570 C.3     1  UNL1        0.0422
     20 C         143.6304  138.5926  162.5781 C.3     1  UNL1        0.0065
     21 C         143.1466  140.8341  163.7994 C.ar    1  UNL1       -0.0208
     22 C         142.1331  141.8015  163.2638 C.ar    1  UNL1       -0.0034
     23 C         142.3569  143.2778  163.4062 C.ar    1  UNL1        0.0111
     24 C         143.5943  143.7868  164.0843 C.ar    1  UNL1        0.0577
     25 CL        143.8181  145.2632  164.2267 Cl      1  UNL1       -0.0822
     26 C         144.6079  142.8195  164.6199 C.ar    1  UNL1        0.0111
     27 C         144.3841  141.3431  164.4775 C.ar    1  UNL1       -0.0034
@<TRIPOS>BOND
     1    16    17    1
     2    17    15    1
     3    15    11    1
     4    11    12   am
     5    12    13    2
     6    12     1    1
     7     1     2    1
     8     2     3   ar
     9     3     4   ar
    10     4     5   ar
    11     5     6   ar
    12     6     7   ar
    13     7     8    1
    14     8     9    2
    15     8    10   am
    16    10    18    1
    17    18    19    1
    18    19    20    1
    19    19    21    1
    20    21    22   ar
    21    22    23   ar
    22    23    24   ar
    23    24    25    1
    24    24    26   ar
    25    26    27   ar
    26    10     1    1
    27    27    21   ar
    28     7     2   ar
    29    11    14    1
@<TRIPOS>MOLECULE
*****
 27 29 0 0 0
SMALL
GASTEIGER

@<TRIPOS>ATOM
      1 C         141.3561  141.6375  164.0547 C.3     1  UNL1        0.1751
      2 C         140.8809  142.9473  163.4992 C.ar    1  UNL1        0.0089
      3 C         139.6268  143.3335  162.7726 C.ar    1  UNL1       -0.0021
      4 C         139.4240  144.7518  162.3286 C.ar    1  UNL1       -0.0003
      5 C         140.4752  145.7839  162.6112 C.ar    1  UNL1        0.0001
      6 C         141.7292  145.3976  163.3378 C.ar    1  UNL1        0.0043
      7 C         141.9321  143.9793  163.7818 C.ar    1  UNL1        0.0516
      8 C         143.0570  143.3073  164.5119 C.2     1  UNL1        0.2493
      9 O         144.3167  143.9669  164.9895 O.2     1  UNL1       -0.2699
     10 N         142.7010  141.8599  164.6806 N.am    1  UNL1       -0.2658
     11 N         139.2606  140.2114  164.6250 N.am    1  UNL1       -0.3027
     12 C         140.6163  140.3340  163.9947 C.2     1  UNL1        0.2449
     13 O         141.2320  139.1531  163.3046 O.2     1  UNL1       -0.2729
     14 H         138.8564  140.9864  165.0780 H       1  UNL1        0.1495
     15 C         138.5208  138.9079  164.5651 C.3     1  UNL1        0.0894
     16 C         137.6492  138.4300  166.9654 C.3     1  UNL1        0.0018
     17 C         138.4638  138.0217  165.7739 C.3     1  UNL1        0.0212
     18 C         143.5422  140.8180  165.3565 C.3     1  UNL1        0.0987
     19 C         142.9989  140.0628  166.5330 C.3     1  UNL1        0.0422
     20 C         143.2803  138.5965  166.6780 C.3     1  UNL1        0.0065
     21 C         142.1740  140.7737  167.5646 C.ar    1  UNL1       -0.0208
     22 C         142.7356  141.9643  168.2837 C.ar    1  UNL1       -0.0034
     23 C         141.9107  142.6752  169.3153 C.ar    1  UNL1        0.0111
     24 C         140.5243  142.1956  169.6278 C.ar    1  UNL1        0.0577
     25 CL        139.6994  142.9065  170.6594 Cl      1  UNL1       -0.0822
     26 C         139.9626  141.0050  168.9086 C.ar    1  UNL1        0.0111
     27 C         140.7875  140.2941  167.8770 C.ar    1  UNL1       -0.0034
@<TRIPOS>BOND
     1    16    17    1
     2    17    15    1
     3    15    11    1
     4    11    12   am
     5    12    13    2
     6    12     1    1
     7     1     2    1
     8     2     3   ar
     9     3     4   ar
    10     4     5   ar
    11     5     6   ar
    12     6     7   ar
    13     7     8    1
    14     8     9    2
    15     8    10   am
    16    10    18    1
    17    18    19    1
    18    19    20    1
    19    19    21    1
    20    21    22   ar
    21    22    23   ar
    22    23    24   ar
    23    24    25    1
    24    24    26   ar
    25    26    27   ar
    26    10     1    1
    27    27    21   ar
    28     7     2   ar
    29    11    14    1
@<TRIPOS>MOLECULE
*****
 27 29 0 0 0
SMALL
GASTEIGER

@<TRIPOS>ATOM
      1 C         141.3866  140.8027  163.7432 C.3     1  UNL1        0.1751
      2 C         142.8248  141.1851  163.5547 C.ar    1  UNL1        0.0089
      3 C         143.4753  142.2965  162.7857 C.ar    1  UNL1       -0.0021
      4 C         144.9692  142.4311  162.7812 C.ar    1  UNL1       -0.0003
      5 C         145.8126  141.4543  163.5458 C.ar    1  UNL1        0.0001
      6 C         145.1620  140.3429  164.3149 C.ar    1  UNL1        0.0043
      7 C         143.6681  140.2083  164.3193 C.ar    1  UNL1        0.0516
      8 C         142.7512  139.2222  164.9803 C.2     1  UNL1        0.2493
      9 O         143.1707  138.0709  165.8455 O.2     1  UNL1       -0.2699
     10 N         141.3411  139.5896  164.6243 N.am    1  UNL1       -0.2658
     11 N         140.0367  142.9875  163.3496 N.am    1  UNL1       -0.3027
     12 C         140.2020  141.5094  163.1540 C.2     1  UNL1        0.2449
     13 O         139.1825  140.7382  162.3693 O.2     1  UNL1       -0.2729
     14 H         140.7058  143.4937  163.8647 H       1  UNL1        0.1495
     15 C         138.8521  143.6942  162.7604 C.3     1  UNL1        0.0894
     16 C         138.0537  144.5950  165.0627 C.3     1  UNL1        0.0018
     17 C         137.7498  144.1823  163.6530 C.3     1  UNL1        0.0212
     18 C         140.1030  138.8702  165.0709 C.3     1  UNL1        0.0987
     19 C         139.3628  139.3367  166.2892 C.3     1  UNL1        0.0422
     20 C         137.9903  138.8066  166.5818 C.3     1  UNL1        0.0065
     21 C         139.9949  140.3333  167.2151 C.ar    1  UNL1       -0.0208
     22 C         139.9486  141.7962  166.8870 C.ar    1  UNL1       -0.0034
     23 C         140.5807  142.7928  167.8129 C.ar    1  UNL1        0.0111
     24 C         141.2592  142.3265  169.0668 C.ar    1  UNL1        0.0577
     25 CL        141.8913  143.3231  169.9926 Cl      1  UNL1       -0.0822
     26 C         141.3055  140.8635  169.3948 C.ar    1  UNL1        0.0111
     27 C         140.6733  139.8669  168.4690 C.ar    1  UNL1       -0.0034
@<TRIPOS>BOND
     1    16    17    1
     2    17    15    1
     3    15    11    1
     4    11    12   am
     5    12    13    2
     6    12     1    1
     7     1     2    1
     8     2     3   ar
     9     3     4   ar
    10     4     5   ar
    11     5     6   ar
    12     6     7   ar
    13     7     8    1
    14     8     9    2
    15     8    10   am
    16    10    18    1
    17    18    19    1
    18    19    20    1
    19    19    21    1
    20    21    22   ar
    21    22    23   ar
    22    23    24   ar
    23    24    25    1
    24    24    26   ar
    25    26    27   ar
    26    10     1    1
    27    27    21   ar
    28     7     2   ar
    29    11    14    1
@<TRIPOS>MOLECULE
*****
 27 29 0 0 0
SMALL
GASTEIGER

@<TRIPOS>ATOM
      1 C         140.6888  139.8011  165.8802 C.3     1  UNL1        0.1751
      2 C         140.5235  140.3361  167.2717 C.ar    1  UNL1        0.0089
      3 C         141.3834  141.2344  168.1104 C.ar    1  UNL1       -0.0021
      4 C         140.9501  141.6065  169.4974 C.ar    1  UNL1       -0.0003
      5 C         139.6569  141.0802  170.0457 C.ar    1  UNL1        0.0001
      6 C         138.7970  140.1818  169.2070 C.ar    1  UNL1        0.0043
      7 C         139.2303  139.8098  167.8200 C.ar    1  UNL1        0.0516
      8 C         138.5964  138.9495  166.7673 C.2     1  UNL1        0.2493
      9 O         137.2904  138.2223  166.8917 O.2     1  UNL1       -0.2699
     10 N         139.4978  138.9441  165.5684 N.am    1  UNL1       -0.2658
     11 N         142.7680  138.9621  164.5673 N.am    1  UNL1       -0.3027
     12 C         141.8426  140.0750  164.9616 C.2     1  UNL1        0.2449
     13 O         142.0711  141.4615  164.4373 O.2     1  UNL1       -0.2729
     14 H         142.6180  138.0520  164.9115 H       1  UNL1        0.1495
     15 C         143.9218  139.2360  163.6488 C.3     1  UNL1        0.0894
     16 C         145.5747  141.2364  163.7750 C.3     1  UNL1        0.0018
     17 C         145.1801  139.8493  164.1876 C.3     1  UNL1        0.0212
     18 C         139.2515  138.2106  164.2834 C.3     1  UNL1        0.0987
     19 C         138.6181  138.9208  163.1239 C.3     1  UNL1        0.0422
     20 C         137.9777  138.1320  162.0203 C.3     1  UNL1        0.0065
     21 C         138.6250  140.4197  163.0680 C.ar    1  UNL1       -0.0208
     22 C         137.7056  141.2075  163.9536 C.ar    1  UNL1       -0.0034
     23 C         137.7125  142.7065  163.8977 C.ar    1  UNL1        0.0111
     24 C         138.6387  143.4176  162.9562 C.ar    1  UNL1        0.0577
     25 CL        138.6456  144.9166  162.9003 Cl      1  UNL1       -0.0822
     26 C         139.5581  142.6298  162.0706 C.ar    1  UNL1        0.0111
     27 C         139.5512  141.1309  162.1265 C.ar    1  UNL1       -0.0034
@<TRIPOS>BOND
     1    16    17    1
     2    17    15    1
     3    15    11    1
     4    11    12   am
     5    12    13    2
     6    12     1    1
     7     1     2    1
     8     2     3   ar
     9     3     4   ar
    10     4     5   ar
    11     5     6   ar
    12     6     7   ar
    13     7     8    1
    14     8     9    2
    15     8    10   am
    16    10    18    1
    17    18    19    1
    18    19    20    1
    19    19    21    1
    20    21    22   ar
    21    22    23   ar
    22    23    24   ar
    23    24    25    1
    24    24    26   ar
    25    26    27   ar
    26    10     1    1
    27    27    21   ar
    28     7     2   ar
    29    11    14    1
@<TRIPOS>MOLECULE
*****
 27 29 0 0 0
SMALL
GASTEIGER

@<TRIPOS>ATOM
      1 C         141.1324  141.8636  163.9678 C.3     1  UNL1        0.1751
      2 C         140.0364  142.8305  163.6303 C.ar    1  UNL1        0.0089
      3 C         140.0406  144.1323  162.8852 C.ar    1  UNL1       -0.0021
      4 C         138.7622  144.8948  162.7004 C.ar    1  UNL1       -0.0003
      5 C         137.4795  144.3555  163.2607 C.ar    1  UNL1        0.0001
      6 C         137.4753  143.0537  164.0058 C.ar    1  UNL1        0.0043
      7 C         138.7537  142.2912  164.1906 C.ar    1  UNL1        0.0516
      8 C         139.0570  140.9910  164.8743 C.2     1  UNL1        0.2493
      9 O         138.0645  140.1097  165.5731 O.2     1  UNL1       -0.2699
     10 N         140.5271  140.7267  164.7366 N.am    1  UNL1       -0.2658
     11 N         143.5995  142.2837  164.6657 N.am    1  UNL1       -0.3027
     12 C         142.5796  142.0082  163.6008 C.2     1  UNL1        0.2449
     13 O         143.0070  141.8775  162.1690 O.2     1  UNL1       -0.2729
     14 H         143.3190  142.3695  165.6055 H       1  UNL1        0.1495
     15 C         145.0467  142.4283  164.2987 C.3     1  UNL1        0.0894
     16 C         145.2728  139.8439  164.1588 C.3     1  UNL1        0.0018
     17 C         145.8690  141.2108  163.9964 C.3     1  UNL1        0.0212
     18 C         141.2628  139.5348  165.2735 C.3     1  UNL1        0.0987
     19 C         141.8938  139.5928  166.6331 C.3     1  UNL1        0.0422
     20 C         143.1118  138.7693  166.9304 C.3     1  UNL1        0.0065
     21 C         141.3068  140.4742  167.6954 C.ar    1  UNL1       -0.0208
     22 C         141.8985  141.8271  167.9588 C.ar    1  UNL1       -0.0034
     23 C         141.3115  142.7086  169.0211 C.ar    1  UNL1        0.0111
     24 C         140.1328  142.2372  169.8199 C.ar    1  UNL1        0.0577
     25 CL        139.5458  143.1186  170.8822 Cl      1  UNL1       -0.0822
     26 C         139.5409  140.8842  169.5565 C.ar    1  UNL1        0.0111
     27 C         140.1279  140.0027  168.4942 C.ar    1  UNL1       -0.0034
@<TRIPOS>BOND
     1    16    17    1
     2    17    15    1
     3    15    11    1
     4    11    12   am
     5    12    13    2
     6    12     1    1
     7     1     2    1
     8     2     3   ar
     9     3     4   ar
    10     4     5   ar
    11     5     6   ar
    12     6     7   ar
    13     7     8    1
    14     8     9    2
    15     8    10   am
    16    10    18    1
    17    18    19    1
    18    19    20    1
    19    19    21    1
    20    21    22   ar
    21    22    23   ar
    22    23    24   ar
    23    24    25    1
    24    24    26   ar
    25    26    27   ar
    26    10     1    1
    27    27    21   ar
    28     7     2   ar
    29    11    14    1
@<TRIPOS>MOLECULE
*****
 27 29 0 0 0
SMALL
GASTEIGER

@<TRIPOS>ATOM
      1 C         141.7582  138.5400  164.3660 C.3     1  UNL1        0.1751
      2 C         142.4691  138.7813  163.0673 C.ar    1  UNL1        0.0089
      3 C         143.8718  139.2115  162.7559 C.ar    1  UNL1       -0.0021
      4 C         144.3078  139.3723  161.3297 C.ar    1  UNL1       -0.0003
      5 C         143.3409  139.1029  160.2150 C.ar    1  UNL1        0.0001
      6 C         141.9381  138.6727  160.5264 C.ar    1  UNL1        0.0043
      7 C         141.5022  138.5119  161.9526 C.ar    1  UNL1        0.0516
      8 C         140.1938  138.1042  162.5624 C.2     1  UNL1        0.2493
      9 O         138.9461  137.7425  161.8122 O.2     1  UNL1       -0.2699
     10 N         140.3519  138.1215  164.0539 N.am    1  UNL1       -0.2658
     11 N         141.7555  139.6686  166.7062 N.am    1  UNL1       -0.3027
     12 C         142.3497  138.6907  165.7362 C.2     1  UNL1        0.2449
     13 O         143.5353  137.8637  166.1364 O.2     1  UNL1       -0.2729
     14 H         140.9774  140.2115  166.4435 H       1  UNL1        0.1495
     15 C         142.3471  139.8194  168.0764 C.3     1  UNL1        0.0894
     16 C         140.0847  140.3604  169.2333 C.3     1  UNL1        0.0018
     17 C         141.4611  139.7666  169.2856 C.3     1  UNL1        0.0212
     18 C         139.2903  137.7803  165.0572 C.3     1  UNL1        0.0987
     19 C         138.4587  138.8685  165.6686 C.3     1  UNL1        0.0422
     20 C         137.7144  138.6157  166.9462 C.3     1  UNL1        0.0065
     21 C         138.3713  140.2097  165.0026 C.ar    1  UNL1       -0.0208
     22 C         137.5791  140.3694  163.7390 C.ar    1  UNL1       -0.0034
     23 C         137.4917  141.7106  163.0730 C.ar    1  UNL1        0.0111
     24 C         138.1965  142.8921  163.6705 C.ar    1  UNL1        0.0577
     25 CL        138.1091  144.2333  163.0045 Cl      1  UNL1       -0.0822
     26 C         138.9888  142.7325  164.9342 C.ar    1  UNL1        0.0111
     27 C         139.0762  141.3913  165.6003 C.ar    1  UNL1       -0.0034
@<TRIPOS>BOND
     1    16    17    1
     2    17    15    1
     3    15    11    1
     4    11    12   am
     5    12    13    2
     6    12     1    1
     7     1     2    1
     8     2     3   ar
     9     3     4   ar
    10     4     5   ar
    11     5     6   ar
    12     6     7   ar
    13     7     8    1
    14     8     9    2
    15     8    10   am
    16    10    18    1
    17    18    19    1
    18    19    20    1
    19    19    21    1
    20    21    22   ar
    21    22    23   ar
    22    23    24   ar
    23    24    25    1
    24    24    26   ar
    25    26    27   ar
    26    10     1    1
    27    27    21   ar
    28     7     2   ar
    29    11    14    1
@<TRIPOS>MOLECULE
*****
 27 29 0 0 0
SMALL
GASTEIGER

@<TRIPOS>ATOM
      1 C         141.9200  141.2489  166.3721 C.3     1  UNL1        0.1751
      2 C         143.1048  141.4552  165.4757 C.ar    1  UNL1        0.0089
      3 C         144.0118  142.6312  165.2655 C.ar    1  UNL1       -0.0021
      4 C         145.1388  142.5425  164.2797 C.ar    1  UNL1       -0.0003
      5 C         145.3588  141.2777  163.5040 C.ar    1  UNL1        0.0001
      6 C         144.4519  140.1016  163.7141 C.ar    1  UNL1        0.0043
      7 C         143.3249  140.1903  164.6999 C.ar    1  UNL1        0.0516
      8 C         142.2760  139.2024  165.1169 C.2     1  UNL1        0.2493
      9 O         142.1224  137.8055  164.5925 O.2     1  UNL1       -0.2699
     10 N         141.4077  139.8567  166.1504 N.am    1  UNL1       -0.2658
     11 N         141.8455  142.3226  168.7368 N.am    1  UNL1       -0.3027
     12 C         141.3478  142.2579  167.3232 C.2     1  UNL1        0.2449
     13 O         140.2780  143.2022  166.8609 O.2     1  UNL1       -0.2729
     14 H         142.5477  141.7028  169.0403 H       1  UNL1        0.1495
     15 C         141.2734  143.3315  169.6880 C.3     1  UNL1        0.0894
     16 C         139.3571  141.6833  170.2885 C.3     1  UNL1        0.0018
     17 C         140.0025  143.0304  170.4256 C.3     1  UNL1        0.0212
     18 C         140.2334  139.2289  166.8409 C.3     1  UNL1        0.0987
     19 C         138.8819  139.2496  166.1905 C.3     1  UNL1        0.0422
     20 C         137.7195  138.5727  166.8545 C.3     1  UNL1        0.0065
     21 C         138.6927  139.9472  164.8762 C.ar    1  UNL1       -0.0208
     22 C         138.2883  141.3913  164.8450 C.ar    1  UNL1       -0.0034
     23 C         138.0990  142.0889  163.5306 C.ar    1  UNL1        0.0111
     24 C         138.3142  141.3425  162.2475 C.ar    1  UNL1        0.0577
     25 CL        138.1250  142.0401  160.9331 Cl      1  UNL1       -0.0822
     26 C         138.7186  139.8983  162.2787 C.ar    1  UNL1        0.0111
     27 C         138.9079  139.2007  163.5930 C.ar    1  UNL1       -0.0034
@<TRIPOS>BOND
     1    16    17    1
     2    17    15    1
     3    15    11    1
     4    11    12   am
     5    12    13    2
     6    12     1    1
     7     1     2    1
     8     2     3   ar
     9     3     4   ar
    10     4     5   ar
    11     5     6   ar
    12     6     7   ar
    13     7     8    1
    14     8     9    2
    15     8    10   am
    16    10    18    1
    17    18    19    1
    18    19    20    1
    19    19    21    1
    20    21    22   ar
    21    22    23   ar
    22    23    24   ar
    23    24    25    1
    24    24    26   ar
    25    26    27   ar
    26    10     1    1
    27    27    21   ar
    28     7     2   ar
    29    11    14    1
@<TRIPOS>MOLECULE
*****
 27 29 0 0 0
SMALL
GASTEIGER

@<TRIPOS>ATOM
      1 C         138.9635  142.2919  161.7736 C.3     1  UNL1        0.1751
      2 C         139.6591  141.9659  160.4852 C.ar    1  UNL1        0.0089
      3 C         139.9367  140.6628  159.7963 C.ar    1  UNL1       -0.0021
      4 C         140.6697  140.6476  158.4877 C.ar    1  UNL1       -0.0003
      5 C         141.1252  141.9354  157.8681 C.ar    1  UNL1        0.0001
      6 C         140.8477  143.2386  158.5571 C.ar    1  UNL1        0.0043
      7 C         140.1146  143.2538  159.8657 C.ar    1  UNL1        0.0516
      8 C         139.7004  144.3757  160.7711 C.2     1  UNL1        0.2493
      9 O         139.9533  145.8358  160.5382 O.2     1  UNL1       -0.2699
     10 N         138.9890  143.7813  161.9502 N.am    1  UNL1       -0.2658
     11 N         139.2117  140.2774  163.3954 N.am    1  UNL1       -0.3027
     12 C         138.3500  141.3023  162.7192 C.2     1  UNL1        0.2449
     13 O         136.8749  141.3374  162.9887 O.2     1  UNL1       -0.2729
     14 H         140.1799  140.2543  163.2185 H       1  UNL1        0.1495
     15 C         138.5982  139.2877  164.3410 C.3     1  UNL1        0.0894
     16 C         137.8131  138.6534  166.7349 C.3     1  UNL1        0.0018
     17 C         138.3737  139.6616  165.7762 C.3     1  UNL1        0.0212
     18 C         138.4055  144.5425  163.1035 C.3     1  UNL1        0.0987
     19 C         139.1291  144.5854  164.4167 C.3     1  UNL1        0.0422
     20 C         138.4064  145.0197  165.6574 C.3     1  UNL1        0.0065
     21 C         140.5753  144.1941  164.4893 C.ar    1  UNL1       -0.0208
     22 C         141.6226  145.0763  163.8773 C.ar    1  UNL1       -0.0034
     23 C         143.0689  144.6850  163.9499 C.ar    1  UNL1        0.0111
     24 C         143.4678  143.4114  164.6345 C.ar    1  UNL1        0.0577
     25 CL        144.9140  143.0200  164.7071 Cl      1  UNL1       -0.0822
     26 C         142.4204  142.5290  165.2466 C.ar    1  UNL1        0.0111
     27 C         140.9742  142.9204  165.1740 C.ar    1  UNL1       -0.0034
@<TRIPOS>BOND
     1    16    17    1
     2    17    15    1
     3    15    11    1
     4    11    12   am
     5    12    13    2
     6    12     1    1
     7     1     2    1
     8     2     3   ar
     9     3     4   ar
    10     4     5   ar
    11     5     6   ar
    12     6     7   ar
    13     7     8    1
    14     8     9    2
    15     8    10   am
    16    10    18    1
    17    18    19    1
    18    19    20    1
    19    19    21    1
    20    21    22   ar
    21    22    23   ar
    22    23    24   ar
    23    24    25    1
    24    24    26   ar
    25    26    27   ar
    26    10     1    1
    27    27    21   ar
    28     7     2   ar
    29    11    14    1
