@<TRIPOS>MOLECULE
*****
 33 35 0 0 0
SMALL
GASTEIGER

@<TRIPOS>ATOM
      1 C         140.2491  139.9320  167.2911 C.ar    1  UNL1        0.0293
      2 C         140.8675  139.5165  165.9893 C.ar    1  UNL1        0.0145
      3 C         140.1073  138.6314  165.0466 C.ar    1  UNL1        0.0505
      4 C         138.7287  138.1618  165.4058 C.ar    1  UNL1        0.0170
      5 C         138.1103  138.5773  166.7076 C.ar    1  UNL1        0.0306
      6 C         138.8705  139.4624  167.6503 C.ar    1  UNL1        0.1380
      7 F         138.2521  139.8780  168.9523 F       1  UNL1       -0.2044
      8 C         140.2662  141.8542  167.4450 C.3     1  UNL1        0.0321
      9 C         141.0093  140.8171  168.2339 C.3     1  UNL1        0.1432
     10 N         141.4883  139.4727  168.6954 N.2     1  UNL1       -0.2214
     11 C         142.4695  139.3735  169.8257 C.2     1  UNL1        0.2769
     12 N         142.9485  138.0290  170.2872 N.pl3   1  UNL1       -0.3133
     13 O         142.9716  140.6188  170.4944 O.2     1  UNL1       -0.4480
     14 C         142.4925  141.9632  170.0329 C.3     1  UNL1        0.2383
     15 C         141.5114  142.0624  168.9027 C.3     1  UNL1        0.2277
     16 F         141.0323  143.4068  168.4411 F       1  UNL1       -0.2309
     17 H         142.6190  137.2117  169.8483 H       1  UNL1        0.1466
     18 H         143.5925  137.9639  171.0290 H       1  UNL1        0.1466
     19 C         142.9946  143.2085  170.7017 C.3     1  UNL1        0.2394
     20 F         144.4612  143.5233  170.6966 F       1  UNL1       -0.2302
     21 N         140.7257  138.2159  163.7446 N.am    1  UNL1       -0.2791
     22 C         140.7293  139.1616  162.5804 C.2     1  UNL1        0.2688
     23 O         140.1145  140.5230  162.7181 O.2     1  UNL1       -0.2681
     24 H         141.1292  137.3224  163.6543 H       1  UNL1        0.1552
     25 C         141.3476  138.7462  161.2785 C.ar    1  UNL1        0.1541
     26 C         142.7394  138.1874  161.2537 C.ar    1  UNL1        0.1258
     27 N         143.3578  137.7719  159.9517 N.ar    1  UNL1       -0.2070
     28 C         142.5843  137.9152  158.6746 C.ar    1  UNL1        0.2469
     29 C         141.1925  138.4740  158.6993 C.ar    1  UNL1        0.1566
     30 N         140.5741  138.8895  160.0012 N.ar    1  UNL1       -0.2328
     31 O         143.2026  137.4997  157.3727 O.3     1  UNL1       -0.4265
     32 C         142.8948  136.1510  156.7928 C.3     1  UNL1        0.4044
     33 F         143.2581  134.9083  157.5503 F       1  UNL1       -0.1809
@<TRIPOS>BOND
     1     9     8    1
     2     9     1    1
     3     1     2   ar
     4     2     3   ar
     5     3    21    1
     6    21    22   am
     7    22    23    2
     8    22    25    1
     9    25    26   ar
    10    26    27   ar
    11    27    28   ar
    12    28    31    1
    13    31    32    1
    14    32    33    1
    15    28    29   ar
    16    29    30   ar
    17     3     4   ar
    18     4     5   ar
    19     5     6   ar
    20     6     7    1
    21     9    10    1
    22    10    11    2
    23    11    12    1
    24    11    13    1
    25    13    14    1
    26    14    19    1
    27    19    20    1
    28    14    15    1
    29    15    16    1
    30    15     9    1
    31     6     1   ar
    32    30    25   ar
    33    21    24    1
    34    12    17    1
    35    12    18    1
@<TRIPOS>MOLECULE
*****
 33 35 0 0 0
SMALL
GASTEIGER

@<TRIPOS>ATOM
      1 C         139.8770  139.2642  164.7871 C.ar    1  UNL1        0.0293
      2 C         140.1879  140.2894  163.7373 C.ar    1  UNL1        0.0145
      3 C         139.7701  140.0573  162.3155 C.ar    1  UNL1        0.0505
      4 C         139.0415  138.8001  161.9435 C.ar    1  UNL1        0.0170
      5 C         138.7306  137.7748  162.9934 C.ar    1  UNL1        0.0306
      6 C         139.1484  138.0069  164.4152 C.ar    1  UNL1        0.1380
      7 F         138.8375  136.9816  165.4651 F       1  UNL1       -0.2044
      8 C         138.8597  139.9261  166.2857 C.3     1  UNL1        0.0321
      9 C         140.2948  139.4962  166.2090 C.3     1  UNL1        0.1432
     10 N         141.5847  138.9857  165.6386 N.2     1  UNL1       -0.2214
     11 C         142.7940  138.8565  166.5166 C.2     1  UNL1        0.2769
     12 N         144.0840  138.3460  165.9460 N.pl3   1  UNL1       -0.3133
     13 O         142.7133  139.2379  167.9651 O.2     1  UNL1       -0.4480
     14 C         141.4234  139.7484  168.5355 C.3     1  UNL1        0.2383
     15 C         140.2141  139.8775  167.6576 C.3     1  UNL1        0.2277
     16 F         138.9242  140.3880  168.2279 F       1  UNL1       -0.2309
     17 H         144.1369  138.0957  164.9954 H       1  UNL1        0.1466
     18 H         144.8777  138.2612  166.5223 H       1  UNL1        0.1466
     19 C         141.3428  140.1297  169.9840 C.3     1  UNL1        0.2394
     20 F         140.2299  139.5991  170.8384 F       1  UNL1       -0.2302
     21 N         140.0809  141.0826  161.2656 N.am    1  UNL1       -0.2791
     22 C         139.0647  142.1285  160.9145 C.2     1  UNL1        0.2688
     23 O         137.7375  142.1492  161.6134 O.2     1  UNL1       -0.2681
     24 H         140.9520  141.0690  160.8069 H       1  UNL1        0.1552
     25 C         139.3755  143.1537  159.8646 C.ar    1  UNL1        0.1541
     26 C         139.1496  142.8362  158.4161 C.ar    1  UNL1        0.1258
     27 N         139.4604  143.8615  157.3662 N.ar    1  UNL1       -0.2070
     28 C         139.9971  145.2043  157.7649 C.ar    1  UNL1        0.2469
     29 C         140.2229  145.5218  159.2134 C.ar    1  UNL1        0.1566
     30 N         139.9121  144.4966  160.2632 N.ar    1  UNL1       -0.2328
     31 O         140.3079  146.2295  156.7150 O.3     1  UNL1       -0.4265
     32 C         139.2487  147.1953  156.2731 C.3     1  UNL1        0.4044
     33 F         138.6543  148.1587  157.2574 F       1  UNL1       -0.1809
@<TRIPOS>BOND
     1     9     8    1
     2     9     1    1
     3     1     2   ar
     4     2     3   ar
     5     3    21    1
     6    21    22   am
     7    22    23    2
     8    22    25    1
     9    25    26   ar
    10    26    27   ar
    11    27    28   ar
    12    28    31    1
    13    31    32    1
    14    32    33    1
    15    28    29   ar
    16    29    30   ar
    17     3     4   ar
    18     4     5   ar
    19     5     6   ar
    20     6     7    1
    21     9    10    1
    22    10    11    2
    23    11    12    1
    24    11    13    1
    25    13    14    1
    26    14    19    1
    27    19    20    1
    28    14    15    1
    29    15    16    1
    30    15     9    1
    31     6     1   ar
    32    30    25   ar
    33    21    24    1
    34    12    17    1
    35    12    18    1
@<TRIPOS>MOLECULE
*****
 33 35 0 0 0
SMALL
GASTEIGER

@<TRIPOS>ATOM
      1 C         142.4465  140.3236  165.8144 C.ar    1  UNL1        0.0293
      2 C         142.3175  141.3336  164.7130 C.ar    1  UNL1        0.0145
      3 C         143.2798  141.3157  163.5626 C.ar    1  UNL1        0.0505
      4 C         144.3711  140.2878  163.5135 C.ar    1  UNL1        0.0170
      5 C         144.5001  139.2777  164.6149 C.ar    1  UNL1        0.0306
      6 C         143.5378  139.2956  165.7653 C.ar    1  UNL1        0.1380
      7 F         143.6668  138.2855  166.8668 F       1  UNL1       -0.2044
      8 C         142.6047  141.1491  167.5500 C.3     1  UNL1        0.0321
      9 C         141.4842  140.3414  166.9650 C.3     1  UNL1        0.1432
     10 N         140.6980  139.5275  165.9804 N.2     1  UNL1       -0.2214
     11 C         139.3386  139.0120  166.3495 C.2     1  UNL1        0.2769
     12 N         138.5523  138.1981  165.3649 N.pl3   1  UNL1       -0.3133
     13 O         138.7654  139.3104  167.7032 O.2     1  UNL1       -0.4480
     14 C         139.5516  140.1243  168.6878 C.3     1  UNL1        0.2383
     15 C         140.9110  140.6398  168.3187 C.3     1  UNL1        0.2277
     16 F         141.6973  141.4537  169.3032 F       1  UNL1       -0.2309
     17 H         138.9285  138.0023  164.4764 H       1  UNL1        0.1466
     18 H         137.6601  137.8597  165.6071 H       1  UNL1        0.1466
     19 C         138.9784  140.4227  170.0415 C.3     1  UNL1        0.2394
     20 F         137.5977  139.9526  170.3915 F       1  UNL1       -0.2302
     21 N         143.1509  142.3258  162.4611 N.am    1  UNL1       -0.2791
     22 C         142.0284  142.2177  161.4720 C.2     1  UNL1        0.2688
     23 O         141.0348  141.0995  161.5845 O.2     1  UNL1       -0.2681
     24 H         143.8030  143.0597  162.3873 H       1  UNL1        0.1552
     25 C         141.8994  143.2277  160.3706 C.ar    1  UNL1        0.1541
     26 C         142.9605  143.3259  159.3150 C.ar    1  UNL1        0.1258
     27 N         142.8315  144.3360  158.2135 N.ar    1  UNL1       -0.2070
     28 C         141.6413  145.2478  158.1677 C.ar    1  UNL1        0.2469
     29 C         140.5802  145.1496  159.2233 C.ar    1  UNL1        0.1566
     30 N         140.7092  144.1396  160.3247 N.ar    1  UNL1       -0.2328
     31 O         141.5124  146.2578  157.0662 O.3     1  UNL1       -0.4265
     32 C         140.1873  146.4722  156.3966 C.3     1  UNL1        0.4044
     33 F         139.1944  147.4287  156.9876 F       1  UNL1       -0.1809
@<TRIPOS>BOND
     1     9     8    1
     2     9     1    1
     3     1     2   ar
     4     2     3   ar
     5     3    21    1
     6    21    22   am
     7    22    23    2
     8    22    25    1
     9    25    26   ar
    10    26    27   ar
    11    27    28   ar
    12    28    31    1
    13    31    32    1
    14    32    33    1
    15    28    29   ar
    16    29    30   ar
    17     3     4   ar
    18     4     5   ar
    19     5     6   ar
    20     6     7    1
    21     9    10    1
    22    10    11    2
    23    11    12    1
    24    11    13    1
    25    13    14    1
    26    14    19    1
    27    19    20    1
    28    14    15    1
    29    15    16    1
    30    15     9    1
    31     6     1   ar
    32    30    25   ar
    33    21    24    1
    34    12    17    1
    35    12    18    1
@<TRIPOS>MOLECULE
*****
 33 35 0 0 0
SMALL
GASTEIGER

@<TRIPOS>ATOM
      1 C         142.5298  140.3937  165.9943 C.ar    1  UNL1        0.0293
      2 C         142.4674  141.3776  164.8638 C.ar    1  UNL1        0.0145
      3 C         143.3889  141.2302  163.6896 C.ar    1  UNL1        0.0505
      4 C         144.3729  140.0989  163.6457 C.ar    1  UNL1        0.0170
      5 C         144.4353  139.1149  164.7761 C.ar    1  UNL1        0.0306
      6 C         143.5137  139.2623  165.9504 C.ar    1  UNL1        0.1380
      7 F         143.5761  138.2783  167.0809 F       1  UNL1       -0.2044
      8 C         140.7391  139.7275  166.2559 C.3     1  UNL1        0.0321
      9 C         141.6082  140.5410  167.1686 C.3     1  UNL1        0.1432
     10 N         142.7973  141.3033  167.6734 N.2     1  UNL1       -0.2214
     11 C         142.7630  141.9304  169.0356 C.2     1  UNL1        0.2769
     12 N         143.9522  142.6927  169.5404 N.pl3   1  UNL1       -0.3133
     13 O         141.5396  141.7952  169.8930 O.2     1  UNL1       -0.4480
     14 C         140.3505  141.0330  169.3881 C.3     1  UNL1        0.2383
     15 C         140.3847  140.4058  168.0260 C.3     1  UNL1        0.2277
     16 F         139.1957  139.6435  167.5210 F       1  UNL1       -0.2309
     17 H         144.7552  142.7814  168.9777 H       1  UNL1        0.1466
     18 H         143.9297  143.1043  170.4345 H       1  UNL1        0.1466
     19 C         139.1271  140.8978  170.2455 C.3     1  UNL1        0.2394
     20 F         138.0517  139.9221  169.8692 F       1  UNL1       -0.2302
     21 N         143.3266  142.2142  162.5591 N.am    1  UNL1       -0.2791
     22 C         142.4511  141.9389  161.3726 C.2     1  UNL1        0.2688
     23 O         141.6380  140.6796  161.3166 O.2     1  UNL1       -0.2681
     24 H         143.8603  143.0407  162.5958 H       1  UNL1        0.1552
     25 C         142.3887  142.9228  160.2421 C.ar    1  UNL1        0.1541
     26 C         141.7648  144.2703  160.4542 C.ar    1  UNL1        0.1258
     27 N         141.7024  145.2542  159.3236 N.ar    1  UNL1       -0.2070
     28 C         142.2640  144.8906  157.9811 C.ar    1  UNL1        0.2469
     29 C         142.8879  143.5431  157.7691 C.ar    1  UNL1        0.1566
     30 N         142.9503  142.5592  158.8995 N.ar    1  UNL1       -0.2328
     31 O         142.2016  145.8745  156.8506 O.3     1  UNL1       -0.4265
     32 C         140.8782  146.2395  156.2461 C.3     1  UNL1        0.4044
     33 F         139.8369  146.9261  157.0794 F       1  UNL1       -0.1809
@<TRIPOS>BOND
     1     9     8    1
     2     9     1    1
     3     1     2   ar
     4     2     3   ar
     5     3    21    1
     6    21    22   am
     7    22    23    2
     8    22    25    1
     9    25    26   ar
    10    26    27   ar
    11    27    28   ar
    12    28    31    1
    13    31    32    1
    14    32    33    1
    15    28    29   ar
    16    29    30   ar
    17     3     4   ar
    18     4     5   ar
    19     5     6   ar
    20     6     7    1
    21     9    10    1
    22    10    11    2
    23    11    12    1
    24    11    13    1
    25    13    14    1
    26    14    19    1
    27    19    20    1
    28    14    15    1
    29    15    16    1
    30    15     9    1
    31     6     1   ar
    32    30    25   ar
    33    21    24    1
    34    12    17    1
    35    12    18    1
@<TRIPOS>MOLECULE
*****
 33 35 0 0 0
SMALL
GASTEIGER

@<TRIPOS>ATOM
      1 C         142.2177  140.6613  166.1530 C.ar    1  UNL1        0.0293
      2 C         141.8964  141.4137  164.8958 C.ar    1  UNL1        0.0145
      3 C         142.4404  140.9422  163.5799 C.ar    1  UNL1        0.0505
      4 C         143.3057  139.7183  163.5212 C.ar    1  UNL1        0.0170
      5 C         143.6269  138.9659  164.7784 C.ar    1  UNL1        0.0306
      6 C         143.0830  139.4374  166.0943 C.ar    1  UNL1        0.1380
      7 F         143.4042  138.6850  167.3516 F       1  UNL1       -0.2044
      8 C         142.9333  141.9445  167.4020 C.3     1  UNL1        0.0321
      9 C         141.6737  141.1327  167.4691 C.3     1  UNL1        0.1432
     10 N         140.6031  140.1573  167.0791 N.2     1  UNL1       -0.2214
     11 C         139.4259  139.9351  167.9818 C.2     1  UNL1        0.2769
     12 N         138.3552  138.9596  167.5918 N.pl3   1  UNL1       -0.3133
     13 O         139.3194  140.6885  169.2746 O.2     1  UNL1       -0.4480
     14 C         140.3900  141.6640  169.6645 C.3     1  UNL1        0.2383
     15 C         141.5672  141.8862  168.7618 C.3     1  UNL1        0.2277
     16 F         142.6379  142.8616  169.1517 F       1  UNL1       -0.2309
     17 H         138.4251  138.4651  166.7434 H       1  UNL1        0.1466
     18 H         137.5826  138.8138  168.1843 H       1  UNL1        0.1466
     19 C         140.2835  142.4174  170.9572 C.3     1  UNL1        0.2394
     20 F         139.2121  143.4518  171.1364 F       1  UNL1       -0.2302
     21 N         142.1191  141.6946  162.3226 N.am    1  UNL1       -0.2791
     22 C         143.0032  142.8211  161.8760 C.2     1  UNL1        0.2688
     23 O         144.2086  143.1951  162.6867 O.2     1  UNL1       -0.2681
     24 H         141.3280  141.4491  161.7905 H       1  UNL1        0.1552
     25 C         142.6820  143.5735  160.6188 C.ar    1  UNL1        0.1541
     26 C         143.3614  143.2088  159.3321 C.ar    1  UNL1        0.1258
     27 N         143.0401  143.9613  158.0749 N.ar    1  UNL1       -0.2070
     28 C         142.0395  145.0783  158.1043 C.ar    1  UNL1        0.2469
     29 C         141.3601  145.4430  159.3909 C.ar    1  UNL1        0.1566
     30 N         141.6813  144.6906  160.6481 N.ar    1  UNL1       -0.2328
     31 O         141.7183  145.8307  156.8470 O.3     1  UNL1       -0.4265
     32 C         140.3105  146.2716  156.5758 C.3     1  UNL1        0.4044
     33 F         139.9237  146.7456  155.2061 F       1  UNL1       -0.1809
@<TRIPOS>BOND
     1     9     8    1
     2     9     1    1
     3     1     2   ar
     4     2     3   ar
     5     3    21    1
     6    21    22   am
     7    22    23    2
     8    22    25    1
     9    25    26   ar
    10    26    27   ar
    11    27    28   ar
    12    28    31    1
    13    31    32    1
    14    32    33    1
    15    28    29   ar
    16    29    30   ar
    17     3     4   ar
    18     4     5   ar
    19     5     6   ar
    20     6     7    1
    21     9    10    1
    22    10    11    2
    23    11    12    1
    24    11    13    1
    25    13    14    1
    26    14    19    1
    27    19    20    1
    28    14    15    1
    29    15    16    1
    30    15     9    1
    31     6     1   ar
    32    30    25   ar
    33    21    24    1
    34    12    17    1
    35    12    18    1
@<TRIPOS>MOLECULE
*****
 33 35 0 0 0
SMALL
GASTEIGER

@<TRIPOS>ATOM
      1 C         142.1598  140.9196  163.5558 C.ar    1  UNL1        0.0293
      2 C         141.7524  140.0769  162.3837 C.ar    1  UNL1        0.0145
      3 C         142.6606  138.9901  161.8896 C.ar    1  UNL1        0.0505
      4 C         143.9761  138.7460  162.5677 C.ar    1  UNL1        0.0170
      5 C         144.3835  139.5887  163.7398 C.ar    1  UNL1        0.0306
      6 C         143.4754  140.6755  164.2338 C.ar    1  UNL1        0.1380
      7 F         143.8827  141.5182  165.4060 F       1  UNL1       -0.2044
      8 C         140.6742  140.8315  164.7821 C.3     1  UNL1        0.0321
      9 C         141.2517  142.0065  164.0499 C.3     1  UNL1        0.1432
     10 N         142.1445  142.8039  163.1461 N.2     1  UNL1       -0.2214
     11 C         141.9286  144.2801  162.9906 C.2     1  UNL1        0.2769
     12 N         142.8215  145.0776  162.0868 N.pl3   1  UNL1       -0.3133
     13 O         140.8199  144.9589  163.7390 O.2     1  UNL1       -0.4480
     14 C         139.9271  144.1614  164.6428 C.3     1  UNL1        0.2383
     15 C         140.1429  142.6852  164.7983 C.3     1  UNL1        0.2277
     16 F         139.2501  141.8877  165.7021 F       1  UNL1       -0.2309
     17 H         143.5492  144.6320  161.5956 H       1  UNL1        0.1466
     18 H         142.6799  146.0465  161.9847 H       1  UNL1        0.1466
     19 C         138.8184  144.8402  165.3912 C.3     1  UNL1        0.2394
     20 F         137.3900  144.4903  165.0958 F       1  UNL1       -0.2302
     21 N         142.2532  138.1474  160.7175 N.am    1  UNL1       -0.2791
     22 C         142.8538  138.4011  159.3666 C.2     1  UNL1        0.2688
     23 O         143.8617  139.4976  159.1878 O.2     1  UNL1       -0.2681
     24 H         141.5917  137.4277  160.8348 H       1  UNL1        0.1552
     25 C         142.4464  137.5584  158.1944 C.ar    1  UNL1        0.1541
     26 C         141.2013  137.8921  157.4275 C.ar    1  UNL1        0.1258
     27 N         140.7940  137.0493  156.2553 N.ar    1  UNL1       -0.2070
     28 C         141.6318  135.8730  155.8501 C.ar    1  UNL1        0.2469
     29 C         142.8770  135.5393  156.6171 C.ar    1  UNL1        0.1566
     30 N         143.2843  136.3820  157.7892 N.ar    1  UNL1       -0.2328
     31 O         141.2245  135.0303  154.6780 O.3     1  UNL1       -0.4265
     32 C         141.3354  133.5363  154.7537 C.3     1  UNL1        0.4044
     33 F         142.4548  132.8306  154.0473 F       1  UNL1       -0.1809
@<TRIPOS>BOND
     1     9     8    1
     2     9     1    1
     3     1     2   ar
     4     2     3   ar
     5     3    21    1
     6    21    22   am
     7    22    23    2
     8    22    25    1
     9    25    26   ar
    10    26    27   ar
    11    27    28   ar
    12    28    31    1
    13    31    32    1
    14    32    33    1
    15    28    29   ar
    16    29    30   ar
    17     3     4   ar
    18     4     5   ar
    19     5     6   ar
    20     6     7    1
    21     9    10    1
    22    10    11    2
    23    11    12    1
    24    11    13    1
    25    13    14    1
    26    14    19    1
    27    19    20    1
    28    14    15    1
    29    15    16    1
    30    15     9    1
    31     6     1   ar
    32    30    25   ar
    33    21    24    1
    34    12    17    1
    35    12    18    1
@<TRIPOS>MOLECULE
*****
 33 35 0 0 0
SMALL
GASTEIGER

@<TRIPOS>ATOM
      1 C         140.6081  139.0738  164.8409 C.ar    1  UNL1        0.0293
      2 C         141.2818  139.7947  163.7111 C.ar    1  UNL1        0.0145
      3 C         141.0025  139.3937  162.2930 C.ar    1  UNL1        0.0505
      4 C         140.0495  138.2717  162.0047 C.ar    1  UNL1        0.0170
      5 C         139.3759  137.5508  163.1345 C.ar    1  UNL1        0.0306
      6 C         139.6552  137.9519  164.5526 C.ar    1  UNL1        0.1380
      7 F         138.9815  137.2310  165.6825 F       1  UNL1       -0.2044
      8 C         139.5424  140.1110  166.0686 C.3     1  UNL1        0.0321
      9 C         140.8874  139.4749  166.2591 C.3     1  UNL1        0.1432
     10 N         142.1354  138.6995  165.9571 N.2     1  UNL1       -0.2214
     11 C         143.1956  138.5461  167.0071 C.2     1  UNL1        0.2769
     12 N         144.4436  137.7707  166.7051 N.pl3   1  UNL1       -0.3133
     13 O         143.0077  139.1681  168.3591 O.2     1  UNL1       -0.4480
     14 C         141.7597  139.9435  168.6611 C.3     1  UNL1        0.2383
     15 C         140.6995  140.0969  167.6111 C.3     1  UNL1        0.2277
     16 F         139.4515  140.8723  167.9130 F       1  UNL1       -0.2309
     17 H         144.5669  137.3625  165.8177 H       1  UNL1        0.1466
     18 H         145.1395  137.6700  167.3942 H       1  UNL1        0.1466
     19 C         141.5718  140.5654  170.0131 C.3     1  UNL1        0.2394
     20 F         140.2940  140.3477  170.7678 F       1  UNL1       -0.2302
     21 N         141.6761  140.1146  161.1631 N.am    1  UNL1       -0.2791
     22 C         143.0941  139.7843  160.8022 C.2     1  UNL1        0.2688
     23 O         143.8385  138.7332  161.5711 O.2     1  UNL1       -0.2681
     24 H         141.1876  140.8044  160.6584 H       1  UNL1        0.1552
     25 C         143.7678  140.5052  159.6724 C.ar    1  UNL1        0.1541
     26 C         144.1380  141.9512  159.8200 C.ar    1  UNL1        0.1258
     27 N         144.8117  142.6721  158.6901 N.ar    1  UNL1       -0.2070
     28 C         145.1151  141.9468  157.4126 C.ar    1  UNL1        0.2469
     29 C         144.7449  140.5008  157.2650 C.ar    1  UNL1        0.1566
     30 N         144.0712  139.7799  158.3948 N.ar    1  UNL1       -0.2328
     31 O         145.7888  142.6677  156.2828 O.3     1  UNL1       -0.4265
     32 C         147.2493  142.4499  156.0189 C.3     1  UNL1        0.4044
     33 F         147.7225  141.1439  155.4527 F       1  UNL1       -0.1809
@<TRIPOS>BOND
     1     9     8    1
     2     9     1    1
     3     1     2   ar
     4     2     3   ar
     5     3    21    1
     6    21    22   am
     7    22    23    2
     8    22    25    1
     9    25    26   ar
    10    26    27   ar
    11    27    28   ar
    12    28    31    1
    13    31    32    1
    14    32    33    1
    15    28    29   ar
    16    29    30   ar
    17     3     4   ar
    18     4     5   ar
    19     5     6   ar
    20     6     7    1
    21     9    10    1
    22    10    11    2
    23    11    12    1
    24    11    13    1
    25    13    14    1
    26    14    19    1
    27    19    20    1
    28    14    15    1
    29    15    16    1
    30    15     9    1
    31     6     1   ar
    32    30    25   ar
    33    21    24    1
    34    12    17    1
    35    12    18    1
@<TRIPOS>MOLECULE
*****
 33 35 0 0 0
SMALL
GASTEIGER

@<TRIPOS>ATOM
      1 C         139.2171  141.7226  164.4799 C.ar    1  UNL1        0.0293
      2 C         140.0079  141.0254  163.4130 C.ar    1  UNL1        0.0145
      3 C         139.6593  141.2276  161.9682 C.ar    1  UNL1        0.0505
      4 C         138.5200  142.1272  161.5903 C.ar    1  UNL1        0.0170
      5 C         137.7292  142.8244  162.6573 C.ar    1  UNL1        0.0306
      6 C         138.0778  142.6222  164.1021 C.ar    1  UNL1        0.1380
      7 F         137.2870  143.3195  165.1692 F       1  UNL1       -0.2044
      8 C         140.2483  142.8322  165.6734 C.3     1  UNL1        0.0321
      9 C         139.5657  141.5204  165.9248 C.3     1  UNL1        0.1432
     10 N         138.7620  140.2789  165.6745 N.2     1  UNL1       -0.2214
     11 C         138.5440  139.2906  166.7817 C.2     1  UNL1        0.2769
     12 N         137.7403  138.0491  166.5314 N.pl3   1  UNL1       -0.3133
     13 O         139.1296  139.5440  168.1393 O.2     1  UNL1       -0.4480
     14 C         139.9333  140.7856  168.3896 C.3     1  UNL1        0.2383
     15 C         140.1513  141.7738  167.2824 C.3     1  UNL1        0.2277
     16 F         140.9549  143.0153  167.5326 F       1  UNL1       -0.2309
     17 H         137.3560  137.8828  165.6404 H       1  UNL1        0.1466
     18 H         137.5972  137.4004  167.2581 H       1  UNL1        0.1466
     19 C         140.5189  141.0389  169.7471 C.3     1  UNL1        0.2394
     20 F         140.0857  142.2369  170.5391 F       1  UNL1       -0.2302
     21 N         140.4501  140.5303  160.9011 N.am    1  UNL1       -0.2791
     22 C         139.9263  139.2675  160.2839 C.2     1  UNL1        0.2688
     23 O         138.6118  138.7019  160.7338 O.2     1  UNL1       -0.2681
     24 H         141.3128  140.9015  160.6058 H       1  UNL1        0.1552
     25 C         140.7170  138.5702  159.2169 C.ar    1  UNL1        0.1541
     26 C         142.1783  138.3006  159.4216 C.ar    1  UNL1        0.1258
     27 N         142.9690  137.6033  158.3545 N.ar    1  UNL1       -0.2070
     28 C         142.2984  137.1756  157.0828 C.ar    1  UNL1        0.2469
     29 C         140.8371  137.4451  156.8781 C.ar    1  UNL1        0.1566
     30 N         140.0464  138.1424  157.9452 N.ar    1  UNL1       -0.2328
     31 O         143.0891  136.4783  156.0158 O.3     1  UNL1       -0.4265
     32 C         143.6946  135.1334  156.2890 C.3     1  UNL1        0.4044
     33 F         143.0437  134.2029  157.2692 F       1  UNL1       -0.1809
@<TRIPOS>BOND
     1     9     8    1
     2     9     1    1
     3     1     2   ar
     4     2     3   ar
     5     3    21    1
     6    21    22   am
     7    22    23    2
     8    22    25    1
     9    25    26   ar
    10    26    27   ar
    11    27    28   ar
    12    28    31    1
    13    31    32    1
    14    32    33    1
    15    28    29   ar
    16    29    30   ar
    17     3     4   ar
    18     4     5   ar
    19     5     6   ar
    20     6     7    1
    21     9    10    1
    22    10    11    2
    23    11    12    1
    24    11    13    1
    25    13    14    1
    26    14    19    1
    27    19    20    1
    28    14    15    1
    29    15    16    1
    30    15     9    1
    31     6     1   ar
    32    30    25   ar
    33    21    24    1
    34    12    17    1
    35    12    18    1
@<TRIPOS>MOLECULE
*****
 33 35 0 0 0
SMALL
GASTEIGER

@<TRIPOS>ATOM
      1 C         140.5429  140.8107  165.5723 C.ar    1  UNL1        0.0293
      2 C         141.3131  141.1839  164.3404 C.ar    1  UNL1        0.0145
      3 C         140.7845  140.8166  162.9856 C.ar    1  UNL1        0.0505
      4 C         139.4858  140.0761  162.8626 C.ar    1  UNL1        0.0170
      5 C         138.7157  139.7029  164.0945 C.ar    1  UNL1        0.0306
      6 C         139.2442  140.0703  165.4493 C.ar    1  UNL1        0.1380
      7 F         138.4741  139.6971  166.6813 F       1  UNL1       -0.2044
      8 C         140.1118  142.3096  166.7064 C.3     1  UNL1        0.0321
      9 C         141.0715  141.1780  166.9273 C.3     1  UNL1        0.1432
     10 N         141.8475  139.9190  166.6775 N.2     1  UNL1       -0.2214
     11 C         142.8188  139.4202  167.7059 C.2     1  UNL1        0.2769
     12 N         143.5949  138.1610  167.4561 N.pl3   1  UNL1       -0.3133
     13 O         143.0141  140.1805  168.9842 O.2     1  UNL1       -0.4480
     14 C         142.2380  141.4395  169.2339 C.3     1  UNL1        0.2383
     15 C         141.2667  141.9383  168.2055 C.3     1  UNL1        0.2277
     16 F         140.4906  143.1974  168.4552 F       1  UNL1       -0.2309
     17 H         143.4668  137.6620  166.6172 H       1  UNL1        0.1466
     18 H         144.2324  137.8336  168.1311 H       1  UNL1        0.1466
     19 C         142.4332  142.1998  170.5122 C.3     1  UNL1        0.2394
     20 F         142.6036  143.6898  170.4800 F       1  UNL1       -0.2302
     21 N         141.5547  141.1897  161.7536 N.am    1  UNL1       -0.2791
     22 C         142.7088  140.3428  161.3054 C.2     1  UNL1        0.2688
     23 O         143.0927  139.1228  162.0892 O.2     1  UNL1       -0.2681
     24 H         141.3026  141.9904  161.2392 H       1  UNL1        0.1552
     25 C         143.4789  140.7159  160.0735 C.ar    1  UNL1        0.1541
     26 C         143.6458  139.7211  158.9633 C.ar    1  UNL1        0.1258
     27 N         144.4160  140.0943  157.7313 N.ar    1  UNL1       -0.2070
     28 C         145.0192  141.4622  157.6096 C.ar    1  UNL1        0.2469
     29 C         144.8523  142.4570  158.7198 C.ar    1  UNL1        0.1566
     30 N         144.0822  142.0839  159.9517 N.ar    1  UNL1       -0.2328
     31 O         145.7894  141.8353  156.3777 O.3     1  UNL1       -0.4265
     32 C         147.1160  142.5241  156.5025 C.3     1  UNL1        0.4044
     33 F         148.3731  141.8080  156.1063 F       1  UNL1       -0.1809
@<TRIPOS>BOND
     1     9     8    1
     2     9     1    1
     3     1     2   ar
     4     2     3   ar
     5     3    21    1
     6    21    22   am
     7    22    23    2
     8    22    25    1
     9    25    26   ar
    10    26    27   ar
    11    27    28   ar
    12    28    31    1
    13    31    32    1
    14    32    33    1
    15    28    29   ar
    16    29    30   ar
    17     3     4   ar
    18     4     5   ar
    19     5     6   ar
    20     6     7    1
    21     9    10    1
    22    10    11    2
    23    11    12    1
    24    11    13    1
    25    13    14    1
    26    14    19    1
    27    19    20    1
    28    14    15    1
    29    15    16    1
    30    15     9    1
    31     6     1   ar
    32    30    25   ar
    33    21    24    1
    34    12    17    1
    35    12    18    1
