@<TRIPOS>MOLECULE
*****
 29 32 0 0 0
SMALL
GASTEIGER

@<TRIPOS>ATOM
      1 C         144.1255  140.2683  162.0480 C.3     1  UNL1        0.2052
      2 C         144.2308  139.3028  160.9049 C.3     1  UNL1        0.1391
      3 N         143.1493  140.0456  160.1778 N.am    1  UNL1       -0.2647
      4 C         142.4591  139.8881  158.8553 C.2     1  UNL1        0.3047
      5 O         141.3872  140.8554  158.4489 O.2     1  UNL1       -0.2647
      6 C         143.0440  141.0111  161.3209 C.3     1  UNL1        0.1391
      7 C         142.8409  138.7632  157.9394 C.ar    1  UNL1        0.3043
      8 N         143.8080  138.8469  156.7959 N.ar    1  UNL1       -0.1021
      9 N         143.8873  137.4926  156.1559 N.ar    1  UNL1       -0.1068
     10 C         142.9693  136.5719  156.9039 C.ar    1  UNL1        0.2501
     11 O         142.3225  137.3572  158.0061 O.2     1  UNL1       -0.4122
     12 C         142.7385  135.1207  156.6025 C.ar    1  UNL1        0.0551
     13 C         143.5497  134.0711  157.3027 C.ar    1  UNL1        0.0047
     14 C         143.3189  132.6199  157.0012 C.ar    1  UNL1        0.0002
     15 C         142.2770  132.2184  155.9998 C.ar    1  UNL1        0.0000
     16 C         141.4657  133.2680  155.2996 C.ar    1  UNL1        0.0002
     17 C         141.6965  134.7192  155.6010 C.ar    1  UNL1        0.0047
     18 O         144.8156  140.4258  163.3704 O.3     1  UNL1       -0.4760
     19 C         143.8789  142.8755  164.8270 C.3     1  UNL1        0.0342
     20 C         143.5675  141.5134  165.3727 C.ar    1  UNL1        0.0118
     21 C         142.7878  141.3762  166.6467 C.ar    1  UNL1       -0.0042
     22 C         142.4763  140.0142  167.1925 C.ar    1  UNL1       -0.0063
     23 C         142.9447  138.7894  166.4642 C.ar    1  UNL1        0.0002
     24 C         143.7244  138.9266  165.1902 C.ar    1  UNL1        0.0363
     25 C         144.0358  140.2886  164.6445 C.ar    1  UNL1        0.1345
     26 C         141.6966  139.8770  168.4666 C.3     1  UNL1        0.0992
     27 N         140.2102  140.0791  168.4616 N.3     1  UNL1       -0.2665
     28 C         139.5111  140.5347  169.7080 C.3     1  UNL1        0.0899
     29 C         139.4230  139.8256  167.2101 C.3     1  UNL1        0.0899
@<TRIPOS>BOND
     1    19    20    1
     2    20    21   ar
     3    21    22   ar
     4    22    26    1
     5    26    27    1
     6    27    28    1
     7    27    29    1
     8    22    23   ar
     9    23    24   ar
    10    24    25   ar
    11    25    18    1
    12    18     1    1
    13     1     2    1
    14     2     3    1
    15     3     4   am
    16     4     5    2
    17     4     7    1
    18     7     8   ar
    19     8     9   ar
    20     9    10   ar
    21    10    12    1
    22    12    13   ar
    23    13    14   ar
    24    14    15   ar
    25    15    16   ar
    26    16    17   ar
    27    10    11   ar
    28     3     6    1
    29    25    20   ar
    30     6     1    1
    31    11     7   ar
    32    17    12   ar
@<TRIPOS>MOLECULE
*****
 29 32 0 0 0
SMALL
GASTEIGER

@<TRIPOS>ATOM
      1 C         139.5792  139.4216  160.4194 C.3     1  UNL1        0.2052
      2 C         139.9280  138.2895  159.4992 C.3     1  UNL1        0.1391
      3 N         141.2829  138.8916  159.2718 N.am    1  UNL1       -0.2647
      4 C         142.4875  138.5169  158.4604 C.2     1  UNL1        0.3047
      5 O         143.7060  139.3915  158.4789 O.2     1  UNL1       -0.2647
      6 C         140.9341  140.0238  160.1920 C.3     1  UNL1        0.1391
      7 C         142.4737  137.2675  157.6305 C.ar    1  UNL1        0.3043
      8 N         141.5886  137.0039  156.4485 N.ar    1  UNL1       -0.1021
      9 N         141.9104  135.6358  155.9243 N.ar    1  UNL1       -0.1068
     10 C         142.9944  135.0538  156.7823 C.ar    1  UNL1        0.2501
     11 O         143.3426  136.0622  157.8368 O.2     1  UNL1       -0.4122
     12 C         143.6204  133.7010  156.6152 C.ar    1  UNL1        0.0551
     13 C         143.3751  132.9105  155.3642 C.ar    1  UNL1        0.0047
     14 C         144.0012  131.5576  155.1971 C.ar    1  UNL1        0.0002
     15 C         144.8723  130.9953  156.2810 C.ar    1  UNL1        0.0000
     16 C         145.1175  131.7857  157.5320 C.ar    1  UNL1        0.0002
     17 C         144.4916  133.1386  157.6991 C.ar    1  UNL1        0.0047
     18 O         138.3746  139.7963  161.2307 O.3     1  UNL1       -0.4760
     19 C         137.6215  142.1152  162.9789 C.3     1  UNL1        0.0342
     20 C         138.0240  140.8092  163.5974 C.ar    1  UNL1        0.0118
     21 C         138.0499  140.6627  165.0900 C.ar    1  UNL1       -0.0042
     22 C         138.4524  139.3568  165.7085 C.ar    1  UNL1       -0.0063
     23 C         138.8289  138.1974  164.8345 C.ar    1  UNL1        0.0002
     24 C         138.8030  138.3439  163.3419 C.ar    1  UNL1        0.0363
     25 C         138.4005  139.6498  162.7234 C.ar    1  UNL1        0.1345
     26 C         138.4783  139.2103  167.2012 C.3     1  UNL1        0.0992
     27 N         139.5424  139.8982  168.0039 N.3     1  UNL1       -0.2665
     28 C         139.2741  140.2878  169.4273 C.3     1  UNL1        0.0899
     29 C         140.8751  140.1964  167.3832 C.3     1  UNL1        0.0899
@<TRIPOS>BOND
     1    19    20    1
     2    20    21   ar
     3    21    22   ar
     4    22    26    1
     5    26    27    1
     6    27    28    1
     7    27    29    1
     8    22    23   ar
     9    23    24   ar
    10    24    25   ar
    11    25    18    1
    12    18     1    1
    13     1     2    1
    14     2     3    1
    15     3     4   am
    16     4     5    2
    17     4     7    1
    18     7     8   ar
    19     8     9   ar
    20     9    10   ar
    21    10    12    1
    22    12    13   ar
    23    13    14   ar
    24    14    15   ar
    25    15    16   ar
    26    16    17   ar
    27    10    11   ar
    28     3     6    1
    29    25    20   ar
    30     6     1    1
    31    11     7   ar
    32    17    12   ar
@<TRIPOS>MOLECULE
*****
 29 32 0 0 0
SMALL
GASTEIGER

@<TRIPOS>ATOM
      1 C         140.8154  144.9649  161.5918 C.3     1  UNL1        0.2052
      2 C         140.2517  145.5889  160.3497 C.3     1  UNL1        0.1391
      3 N         140.5562  144.3365  159.5823 N.am    1  UNL1       -0.2647
      4 C         140.3728  143.8923  158.1613 C.2     1  UNL1        0.3047
      5 O         140.8128  142.5211  157.7416 O.2     1  UNL1       -0.2647
      6 C         141.1198  143.7125  160.8244 C.3     1  UNL1        0.1391
      7 C         139.7496  144.8192  157.1602 C.ar    1  UNL1        0.3043
      8 N         138.7312  144.4433  156.1251 N.ar    1  UNL1       -0.1021
      9 N         138.3875  145.6767  155.3436 N.ar    1  UNL1       -0.1068
     10 C         139.1935  146.8148  155.8957 C.ar    1  UNL1        0.2501
     11 O         140.0353  146.2850  157.0184 O.2     1  UNL1       -0.4122
     12 C         139.1630  148.2338  155.4103 C.ar    1  UNL1        0.0551
     13 C         139.7939  148.5909  154.0971 C.ar    1  UNL1        0.0047
     14 C         139.7634  150.0100  153.6117 C.ar    1  UNL1        0.0002
     15 C         139.1021  151.0717  154.4394 C.ar    1  UNL1        0.0000
     16 C         138.4712  150.7145  155.7526 C.ar    1  UNL1        0.0002
     17 C         138.5017  149.2956  156.2380 C.ar    1  UNL1        0.0047
     18 O         140.9987  145.4091  163.0127 O.3     1  UNL1       -0.4760
     19 C         138.6189  144.7753  164.7259 C.3     1  UNL1        0.0342
     20 C         139.9231  144.0739  164.9647 C.ar    1  UNL1        0.0118
     21 C         140.0374  143.0555  166.0601 C.ar    1  UNL1       -0.0042
     22 C         141.3416  142.3541  166.2989 C.ar    1  UNL1       -0.0063
     23 C         142.5315  142.6710  165.4423 C.ar    1  UNL1        0.0002
     24 C         142.4172  143.6893  164.3470 C.ar    1  UNL1        0.0363
     25 C         141.1130  144.3908  164.1082 C.ar    1  UNL1        0.1345
     26 C         141.4559  141.3357  167.3944 C.3     1  UNL1        0.0992
     27 N         140.3284  140.3803  167.6508 N.3     1  UNL1       -0.2665
     28 C         139.6995  140.3100  169.0107 C.3     1  UNL1        0.0899
     29 C         139.8298  139.4951  166.5472 C.3     1  UNL1        0.0899
@<TRIPOS>BOND
     1    19    20    1
     2    20    21   ar
     3    21    22   ar
     4    22    26    1
     5    26    27    1
     6    27    28    1
     7    27    29    1
     8    22    23   ar
     9    23    24   ar
    10    24    25   ar
    11    25    18    1
    12    18     1    1
    13     1     2    1
    14     2     3    1
    15     3     4   am
    16     4     5    2
    17     4     7    1
    18     7     8   ar
    19     8     9   ar
    20     9    10   ar
    21    10    12    1
    22    12    13   ar
    23    13    14   ar
    24    14    15   ar
    25    15    16   ar
    26    16    17   ar
    27    10    11   ar
    28     3     6    1
    29    25    20   ar
    30     6     1    1
    31    11     7   ar
    32    17    12   ar
@<TRIPOS>MOLECULE
*****
 29 32 0 0 0
SMALL
GASTEIGER

@<TRIPOS>ATOM
      1 C         141.0615  138.9603  162.3848 C.3     1  UNL1        0.2052
      2 C         141.4233  138.2275  161.1270 C.3     1  UNL1        0.1391
      3 N         142.1308  139.4487  160.6190 N.am    1  UNL1       -0.2647
      4 C         142.8869  139.7941  159.3704 C.2     1  UNL1        0.3047
      5 O         143.4767  141.1634  159.2052 O.2     1  UNL1       -0.2647
      6 C         141.7690  140.1815  161.8768 C.3     1  UNL1        0.1391
      7 C         143.0533  138.7702  158.2869 C.ar    1  UNL1        0.3043
      8 N         143.6767  139.0024  156.9426 N.ar    1  UNL1       -0.1021
      9 N         143.6342  137.7099  156.1824 N.ar    1  UNL1       -0.1068
     10 C         142.9845  136.6789  157.0570 C.ar    1  UNL1        0.2501
     11 O         142.6255  137.3342  158.3577 O.2     1  UNL1       -0.4122
     12 C         142.7372  135.2446  156.6945 C.ar    1  UNL1        0.0551
     13 C         141.7700  134.9037  155.5998 C.ar    1  UNL1        0.0047
     14 C         141.5228  133.4692  155.2373 C.ar    1  UNL1        0.0002
     15 C         142.2426  132.3758  155.9696 C.ar    1  UNL1        0.0000
     16 C         143.2098  132.7167  157.0643 C.ar    1  UNL1        0.0002
     17 C         143.4571  134.1511  157.4267 C.ar    1  UNL1        0.0047
     18 O         140.3054  138.6149  163.6334 O.3     1  UNL1       -0.4760
     19 C         138.5113  139.7939  165.7289 C.3     1  UNL1        0.0342
     20 C         139.9661  139.5768  166.0229 C.ar    1  UNL1        0.0118
     21 C         140.5238  139.9491  167.3646 C.ar    1  UNL1       -0.0042
     22 C         141.9786  139.7320  167.6586 C.ar    1  UNL1       -0.0063
     23 C         142.8757  139.1425  166.6109 C.ar    1  UNL1        0.0002
     24 C         142.3179  138.7701  165.2692 C.ar    1  UNL1        0.0363
     25 C         140.8631  138.9873  164.9752 C.ar    1  UNL1        0.1345
     26 C         142.5364  140.1043  169.0004 C.3     1  UNL1        0.0992
     27 N         141.8795  141.1803  169.8133 N.3     1  UNL1       -0.2665
     28 C         140.9522  140.8132  170.9338 C.3     1  UNL1        0.0899
     29 C         142.1498  142.6233  169.5057 C.3     1  UNL1        0.0899
@<TRIPOS>BOND
     1    19    20    1
     2    20    21   ar
     3    21    22   ar
     4    22    26    1
     5    26    27    1
     6    27    28    1
     7    27    29    1
     8    22    23   ar
     9    23    24   ar
    10    24    25   ar
    11    25    18    1
    12    18     1    1
    13     1     2    1
    14     2     3    1
    15     3     4   am
    16     4     5    2
    17     4     7    1
    18     7     8   ar
    19     8     9   ar
    20     9    10   ar
    21    10    12    1
    22    12    13   ar
    23    13    14   ar
    24    14    15   ar
    25    15    16   ar
    26    16    17   ar
    27    10    11   ar
    28     3     6    1
    29    25    20   ar
    30     6     1    1
    31    11     7   ar
    32    17    12   ar
@<TRIPOS>MOLECULE
*****
 29 32 0 0 0
SMALL
GASTEIGER

@<TRIPOS>ATOM
      1 C         138.2549  139.3784  160.3331 C.3     1  UNL1        0.2052
      2 C         138.1422  139.5948  161.8131 C.3     1  UNL1        0.1391
      3 N         139.2026  138.5596  162.0452 N.am    1  UNL1       -0.2647
      4 C         139.8728  137.9806  163.2560 C.2     1  UNL1        0.3047
      5 O         140.9262  136.9247  163.0972 O.2     1  UNL1       -0.2647
      6 C         139.3153  138.3431  160.5652 C.3     1  UNL1        0.1391
      7 C         139.4894  138.4577  164.6255 C.ar    1  UNL1        0.3043
      8 N         138.4117  137.8765  165.4919 N.ar    1  UNL1       -0.1021
      9 N         138.3727  138.6593  166.7709 N.ar    1  UNL1       -0.1068
     10 C         139.4263  139.7242  166.6949 C.ar    1  UNL1        0.2501
     11 O         140.1165  139.5996  165.3689 O.2     1  UNL1       -0.4122
     12 C         139.7354  140.7361  167.7581 C.ar    1  UNL1        0.0551
     13 C         139.4428  140.4261  169.1963 C.ar    1  UNL1        0.0047
     14 C         139.7520  141.4381  170.2596 C.ar    1  UNL1        0.0002
     15 C         140.3537  142.7598  169.8846 C.ar    1  UNL1        0.0000
     16 C         140.6463  143.0699  168.4465 C.ar    1  UNL1        0.0002
     17 C         140.3372  142.0580  167.3832 C.ar    1  UNL1        0.0047
     18 O         137.5848  139.9573  159.1224 O.3     1  UNL1       -0.4760
     19 C         136.4556  140.9392  156.5223 C.3     1  UNL1        0.0342
     20 C         137.5479  141.7088  157.2039 C.ar    1  UNL1        0.0118
     21 C         138.0756  142.9694  156.5854 C.ar    1  UNL1       -0.0042
     22 C         139.1679  143.7390  157.2670 C.ar    1  UNL1       -0.0063
     23 C         139.7325  143.2481  158.5670 C.ar    1  UNL1        0.0002
     24 C         139.2048  141.9875  159.1855 C.ar    1  UNL1        0.0363
     25 C         138.1125  141.2179  158.5039 C.ar    1  UNL1        0.1345
     26 C         139.6956  144.9996  156.6485 C.3     1  UNL1        0.0992
     27 N         141.1206  145.0683  156.1853 N.3     1  UNL1       -0.2665
     28 C         141.5186  144.4320  154.8866 C.3     1  UNL1        0.0899
     29 C         142.1477  145.7732  157.0209 C.3     1  UNL1        0.0899
@<TRIPOS>BOND
     1    19    20    1
     2    20    21   ar
     3    21    22   ar
     4    22    26    1
     5    26    27    1
     6    27    28    1
     7    27    29    1
     8    22    23   ar
     9    23    24   ar
    10    24    25   ar
    11    25    18    1
    12    18     1    1
    13     1     2    1
    14     2     3    1
    15     3     4   am
    16     4     5    2
    17     4     7    1
    18     7     8   ar
    19     8     9   ar
    20     9    10   ar
    21    10    12    1
    22    12    13   ar
    23    13    14   ar
    24    14    15   ar
    25    15    16   ar
    26    16    17   ar
    27    10    11   ar
    28     3     6    1
    29    25    20   ar
    30     6     1    1
    31    11     7   ar
    32    17    12   ar
@<TRIPOS>MOLECULE
*****
 29 32 0 0 0
SMALL
GASTEIGER

@<TRIPOS>ATOM
      1 C         143.0829  139.8290  158.3081 C.3     1  UNL1        0.2052
      2 C         142.7175  139.3806  159.6921 C.3     1  UNL1        0.1391
      3 N         143.7471  140.3090  160.2648 N.am    1  UNL1       -0.2647
      4 C         144.2168  140.6484  161.6484 C.2     1  UNL1        0.3047
      5 O         145.3059  141.6613  161.8433 O.2     1  UNL1       -0.2647
      6 C         144.1125  140.7574  158.8808 C.3     1  UNL1        0.1391
      7 C         143.5974  139.9750  162.8369 C.ar    1  UNL1        0.3043
      8 N         144.3275  139.1863  163.8833 N.ar    1  UNL1       -0.1021
      9 N         143.3204  138.6959  164.8809 N.ar    1  UNL1       -0.1068
     10 C         141.9678  139.1815  164.4511 C.ar    1  UNL1        0.2501
     11 O         142.1390  139.9721  163.1879 O.2     1  UNL1       -0.4122
     12 C         140.6717  138.9221  165.1601 C.ar    1  UNL1        0.0551
     13 C         139.8118  137.7632  164.7509 C.ar    1  UNL1        0.0047
     14 C         138.5156  137.5038  165.4599 C.ar    1  UNL1        0.0002
     15 C         138.0794  138.4034  166.5781 C.ar    1  UNL1        0.0000
     16 C         138.9392  139.5623  166.9874 C.ar    1  UNL1        0.0002
     17 C         140.2354  139.8217  166.2784 C.ar    1  UNL1        0.0047
     18 O         142.6132  139.4896  156.9246 O.3     1  UNL1       -0.4760
     19 C         140.1987  137.7143  157.0617 C.3     1  UNL1        0.0342
     20 C         141.4859  137.1876  156.4999 C.ar    1  UNL1        0.0118
     21 C         141.5659  135.7734  156.0066 C.ar    1  UNL1       -0.0042
     22 C         142.8531  135.2467  155.4447 C.ar    1  UNL1       -0.0063
     23 C         144.0603  136.1342  155.3762 C.ar    1  UNL1        0.0002
     24 C         143.9804  137.5485  155.8695 C.ar    1  UNL1        0.0363
     25 C         142.6932  138.0752  156.4313 C.ar    1  UNL1        0.1345
     26 C         142.9330  133.8323  154.9514 C.3     1  UNL1        0.0992
     27 N         142.9225  132.6951  155.9295 N.3     1  UNL1       -0.2665
     28 C         142.1189  131.4626  155.6381 C.3     1  UNL1        0.0899
     29 C         143.7157  132.7906  157.1992 C.3     1  UNL1        0.0899
@<TRIPOS>BOND
     1    19    20    1
     2    20    21   ar
     3    21    22   ar
     4    22    26    1
     5    26    27    1
     6    27    28    1
     7    27    29    1
     8    22    23   ar
     9    23    24   ar
    10    24    25   ar
    11    25    18    1
    12    18     1    1
    13     1     2    1
    14     2     3    1
    15     3     4   am
    16     4     5    2
    17     4     7    1
    18     7     8   ar
    19     8     9   ar
    20     9    10   ar
    21    10    12    1
    22    12    13   ar
    23    13    14   ar
    24    14    15   ar
    25    15    16   ar
    26    16    17   ar
    27    10    11   ar
    28     3     6    1
    29    25    20   ar
    30     6     1    1
    31    11     7   ar
    32    17    12   ar
@<TRIPOS>MOLECULE
*****
 29 32 0 0 0
SMALL
GASTEIGER

@<TRIPOS>ATOM
      1 C         140.3165  137.7124  162.7156 C.3     1  UNL1        0.2052
      2 C         141.3405  137.8973  161.6352 C.3     1  UNL1        0.1391
      3 N         140.2614  138.3267  160.6859 N.am    1  UNL1       -0.2647
      4 C         140.2225  138.7610  159.2507 C.2     1  UNL1        0.3047
      5 O         138.9152  139.1279  158.6133 O.2     1  UNL1       -0.2647
      6 C         139.2374  138.1418  161.7663 C.3     1  UNL1        0.1391
      7 C         141.4909  138.8285  158.4528 C.ar    1  UNL1        0.3043
      8 N         142.1030  137.7026  157.6732 N.ar    1  UNL1       -0.1021
      9 N         143.3604  138.2120  157.0331 N.ar    1  UNL1       -0.1068
     10 C         143.5253  139.6526  157.4171 C.ar    1  UNL1        0.2501
     11 O         142.3700  140.0336  158.2945 O.2     1  UNL1       -0.4122
     12 C         144.6485  140.5539  156.9973 C.ar    1  UNL1        0.0551
     13 C         145.4250  140.2533  155.7497 C.ar    1  UNL1        0.0047
     14 C         146.5482  141.1547  155.3300 C.ar    1  UNL1        0.0002
     15 C         146.8947  142.3565  156.1578 C.ar    1  UNL1        0.0000
     16 C         146.1181  142.6571  157.4055 C.ar    1  UNL1        0.0002
     17 C         144.9950  141.7558  157.8252 C.ar    1  UNL1        0.0047
     18 O         140.3555  137.2781  164.1508 O.3     1  UNL1       -0.4760
     19 C         142.9217  138.4361  165.1868 C.3     1  UNL1        0.0342
     20 C         141.6109  138.8821  165.7636 C.ar    1  UNL1        0.0118
     21 C         141.5831  139.9071  166.8584 C.ar    1  UNL1       -0.0042
     22 C         140.2722  140.3531  167.4352 C.ar    1  UNL1       -0.0063
     23 C         138.9891  139.7741  166.9172 C.ar    1  UNL1        0.0002
     24 C         139.0169  138.7491  165.8225 C.ar    1  UNL1        0.0363
     25 C         140.3278  138.3031  165.2456 C.ar    1  UNL1        0.1345
     26 C         140.2445  141.3781  168.5301 C.3     1  UNL1        0.0992
     27 N         141.3954  141.4856  169.4861 N.3     1  UNL1       -0.2665
     28 C         142.4520  142.5288  169.2735 C.3     1  UNL1        0.0899
     29 C         141.4895  140.5499  170.6547 C.3     1  UNL1        0.0899
@<TRIPOS>BOND
     1    19    20    1
     2    20    21   ar
     3    21    22   ar
     4    22    26    1
     5    26    27    1
     6    27    28    1
     7    27    29    1
     8    22    23   ar
     9    23    24   ar
    10    24    25   ar
    11    25    18    1
    12    18     1    1
    13     1     2    1
    14     2     3    1
    15     3     4   am
    16     4     5    2
    17     4     7    1
    18     7     8   ar
    19     8     9   ar
    20     9    10   ar
    21    10    12    1
    22    12    13   ar
    23    13    14   ar
    24    14    15   ar
    25    15    16   ar
    26    16    17   ar
    27    10    11   ar
    28     3     6    1
    29    25    20   ar
    30     6     1    1
    31    11     7   ar
    32    17    12   ar
@<TRIPOS>MOLECULE
*****
 29 32 0 0 0
SMALL
GASTEIGER

@<TRIPOS>ATOM
      1 C         143.3740  139.9414  162.2598 C.3     1  UNL1        0.2052
      2 C         144.0854  139.8671  160.9413 C.3     1  UNL1        0.1391
      3 N         143.6508  141.2681  160.6278 N.am    1  UNL1       -0.2647
      4 C         143.8466  142.2063  159.4738 C.2     1  UNL1        0.3047
      5 O         143.2426  143.5788  159.5122 O.2     1  UNL1       -0.2647
      6 C         142.9393  141.3424  161.9463 C.3     1  UNL1        0.1391
      7 C         144.6463  141.7718  158.2815 C.ar    1  UNL1        0.3043
      8 N         144.5673  140.4346  157.6065 N.ar    1  UNL1       -0.1021
      9 N         145.5376  140.4347  156.4626 N.ar    1  UNL1       -0.1068
     10 C         146.2163  141.7720  156.4306 C.ar    1  UNL1        0.2501
     11 O         145.6655  142.5984  157.5547 O.2     1  UNL1       -0.4122
     12 C         147.2622  142.2066  155.4471 C.ar    1  UNL1        0.0551
     13 C         146.9398  143.2545  154.4235 C.ar    1  UNL1        0.0047
     14 C         147.9859  143.6891  153.4400 C.ar    1  UNL1        0.0002
     15 C         149.3540  143.0757  153.4802 C.ar    1  UNL1        0.0000
     16 C         149.6764  142.0278  154.5039 C.ar    1  UNL1        0.0002
     17 C         148.6305  141.5932  155.4873 C.ar    1  UNL1        0.0047
     18 O         143.1782  139.0033  163.4137 O.3     1  UNL1       -0.4760
     19 C         140.5564  137.9123  164.3809 C.3     1  UNL1        0.0342
     20 C         141.2732  138.9601  165.1798 C.ar    1  UNL1        0.0118
     21 C         140.6791  139.4624  166.4622 C.ar    1  UNL1       -0.0042
     22 C         141.3959  140.5103  167.2611 C.ar    1  UNL1       -0.0063
     23 C         142.7068  141.0558  166.7775 C.ar    1  UNL1        0.0002
     24 C         143.3009  140.5535  165.4951 C.ar    1  UNL1        0.0363
     25 C         142.5841  139.5056  164.6962 C.ar    1  UNL1        0.1345
     26 C         140.8017  141.0126  168.5436 C.3     1  UNL1        0.0992
     27 N         141.4166  140.6275  169.8565 N.3     1  UNL1       -0.2665
     28 C         141.3380  141.5646  171.0251 C.3     1  UNL1        0.0899
     29 C         142.1102  139.3052  170.0007 C.3     1  UNL1        0.0899
@<TRIPOS>BOND
     1    19    20    1
     2    20    21   ar
     3    21    22   ar
     4    22    26    1
     5    26    27    1
     6    27    28    1
     7    27    29    1
     8    22    23   ar
     9    23    24   ar
    10    24    25   ar
    11    25    18    1
    12    18     1    1
    13     1     2    1
    14     2     3    1
    15     3     4   am
    16     4     5    2
    17     4     7    1
    18     7     8   ar
    19     8     9   ar
    20     9    10   ar
    21    10    12    1
    22    12    13   ar
    23    13    14   ar
    24    14    15   ar
    25    15    16   ar
    26    16    17   ar
    27    10    11   ar
    28     3     6    1
    29    25    20   ar
    30     6     1    1
    31    11     7   ar
    32    17    12   ar
@<TRIPOS>MOLECULE
*****
 29 32 0 0 0
SMALL
GASTEIGER

@<TRIPOS>ATOM
      1 C         139.5062  139.2112  157.7386 C.3     1  UNL1        0.2052
      2 C         139.9478  137.8430  157.3108 C.3     1  UNL1        0.1391
      3 N         141.3545  138.3427  157.1646 N.am    1  UNL1       -0.2647
      4 C         142.6615  137.7286  156.7588 C.2     1  UNL1        0.3047
      5 O         143.9061  138.5654  156.7284 O.2     1  UNL1       -0.2647
      6 C         140.9129  139.7109  157.5925 C.3     1  UNL1        0.1391
      7 C         142.7240  136.2777  156.3833 C.ar    1  UNL1        0.3043
      8 N         142.2094  135.6735  155.1105 N.ar    1  UNL1       -0.1021
      9 N         142.4794  134.1986  155.1553 N.ar    1  UNL1       -0.1068
     10 C         143.1608  133.8914  156.4558 C.ar    1  UNL1        0.2501
     11 O         143.3120  135.1764  157.2147 O.2     1  UNL1       -0.4122
     12 C         143.6119  132.5370  156.9164 C.ar    1  UNL1        0.0551
     13 C         144.8952  132.3934  157.6796 C.ar    1  UNL1        0.0047
     14 C         145.3463  131.0389  158.1402 C.ar    1  UNL1        0.0002
     15 C         144.5139  129.8283  157.8377 C.ar    1  UNL1        0.0000
     16 C         143.2306  129.9719  157.0746 C.ar    1  UNL1        0.0002
     17 C         142.7796  131.3263  156.6140 C.ar    1  UNL1        0.0047
     18 O         138.1992  139.8252  158.1445 O.3     1  UNL1       -0.4760
     19 C         138.7677  142.7599  158.3980 C.3     1  UNL1        0.0342
     20 C         138.3543  141.9691  159.6038 C.ar    1  UNL1        0.0118
     21 C         138.2252  142.6457  160.9363 C.ar    1  UNL1       -0.0042
     22 C         137.8119  141.8549  162.1420 C.ar    1  UNL1       -0.0063
     23 C         137.5276  140.3876  162.0152 C.ar    1  UNL1        0.0002
     24 C         137.6567  139.7110  160.6827 C.ar    1  UNL1        0.0363
     25 C         138.0701  140.5018  159.4770 C.ar    1  UNL1        0.1345
     26 C         137.6827  142.5315  163.4745 C.3     1  UNL1        0.0992
     27 N         138.8716  143.2073  164.0908 N.3     1  UNL1       -0.2665
     28 C         138.7871  144.6480  164.4995 C.3     1  UNL1        0.0899
     29 C         140.1451  142.4422  164.2984 C.3     1  UNL1        0.0899
@<TRIPOS>BOND
     1    19    20    1
     2    20    21   ar
     3    21    22   ar
     4    22    26    1
     5    26    27    1
     6    27    28    1
     7    27    29    1
     8    22    23   ar
     9    23    24   ar
    10    24    25   ar
    11    25    18    1
    12    18     1    1
    13     1     2    1
    14     2     3    1
    15     3     4   am
    16     4     5    2
    17     4     7    1
    18     7     8   ar
    19     8     9   ar
    20     9    10   ar
    21    10    12    1
    22    12    13   ar
    23    13    14   ar
    24    14    15   ar
    25    15    16   ar
    26    16    17   ar
    27    10    11   ar
    28     3     6    1
    29    25    20   ar
    30     6     1    1
    31    11     7   ar
    32    17    12   ar
