@<TRIPOS>MOLECULE
*****
 22 24 0 0 0
SMALL
GASTEIGER

@<TRIPOS>ATOM
      1 O         143.7156  142.5952  168.3459 O.3     1  UNL1       -0.3786
      2 C         142.4775  142.0590  167.6905 C.3     1  UNL1        0.1256
      3 H         144.4233  142.6711  167.6869 H       1  UNL1        0.2111
      4 C         141.7545  142.1241  169.0031 C.3     1  UNL1        0.0353
      5 C         140.6414  143.1105  169.1982 C.3     1  UNL1        0.0201
      6 C         139.9184  143.1757  170.5108 C.3     1  UNL1        0.0687
      7 N         140.3084  142.2544  171.6284 N.3     1  UNL1       -0.2975
      8 C         141.4215  141.2679  171.4334 C.3     1  UNL1        0.0687
      9 C         142.1445  141.2028  170.1208 C.3     1  UNL1        0.0201
     10 H         139.4766  141.7157  171.8699 H       1  UNL1        0.1232
     11 C         143.2005  141.9938  166.3778 C.ar    1  UNL1        0.0056
     12 C         143.3191  140.6871  165.6510 C.ar    1  UNL1       -0.0017
     13 C         144.0421  140.6220  164.3384 C.ar    1  UNL1       -0.0002
     14 C         144.6464  141.8636  163.7526 C.ar    1  UNL1       -0.0000
     15 C         144.5278  143.1704  164.4794 C.ar    1  UNL1       -0.0002
     16 C         143.8048  143.2354  165.7920 C.ar    1  UNL1       -0.0017
     17 C         141.2394  141.5227  167.0352 C.ar    1  UNL1        0.0056
     18 C         140.7487  140.1458  167.3722 C.ar    1  UNL1       -0.0017
     19 C         139.5106  139.6096  166.7168 C.ar    1  UNL1       -0.0002
     20 C         138.7632  140.4502  165.7245 C.ar    1  UNL1       -0.0000
     21 C         139.2538  141.8270  165.3874 C.ar    1  UNL1       -0.0002
     22 C         140.4920  142.3633  166.0428 C.ar    1  UNL1       -0.0017
@<TRIPOS>BOND
     1     1     2    1
     2     2    11    1
     3    11    12   ar
     4    12    13   ar
     5    13    14   ar
     6    14    15   ar
     7    15    16   ar
     8     2    17    1
     9    17    18   ar
    10    18    19   ar
    11    19    20   ar
    12    20    21   ar
    13    21    22   ar
    14     2     4    1
    15     4     5    1
    16     5     6    1
    17     6     7    1
    18     7     8    1
    19     8     9    1
    20    16    11   ar
    21    22    17   ar
    22     9     4    1
    23     1     3    1
    24     7    10    1
@<TRIPOS>MOLECULE
*****
 22 24 0 0 0
SMALL
GASTEIGER

@<TRIPOS>ATOM
      1 O         143.7198  142.6037  168.3421 O.3     1  UNL1       -0.3786
      2 C         142.4831  142.0641  167.6869 C.3     1  UNL1        0.1256
      3 H         144.4270  142.6822  167.6829 H       1  UNL1        0.2111
      4 C         141.7604  142.1262  168.9999 C.3     1  UNL1        0.0353
      5 C         142.1541  141.2056  170.1169 C.3     1  UNL1        0.0201
      6 C         141.4314  141.2676  171.4299 C.3     1  UNL1        0.0687
      7 N         140.3151  142.2502  171.6259 N.3     1  UNL1       -0.2975
      8 C         139.9214  143.1707  170.5089 C.3     1  UNL1        0.0687
      9 C         140.6441  143.1087  169.1959 C.3     1  UNL1        0.0201
     10 H         140.5776  142.8405  172.4152 H       1  UNL1        0.1232
     11 C         143.2057  142.0020  166.3739 C.ar    1  UNL1        0.0056
     12 C         143.8074  143.2456  165.7894 C.ar    1  UNL1       -0.0017
     13 C         144.5300  143.1834  164.4765 C.ar    1  UNL1       -0.0002
     14 C         144.6509  141.8778  163.7479 C.ar    1  UNL1       -0.0000
     15 C         144.0492  140.6343  164.3324 C.ar    1  UNL1       -0.0002
     16 C         143.3266  140.6964  165.6454 C.ar    1  UNL1       -0.0017
     17 C         141.2463  141.5245  167.0317 C.ar    1  UNL1        0.0056
     18 C         140.4969  142.3628  166.0389 C.ar    1  UNL1       -0.0017
     19 C         139.2602  141.8233  165.3837 C.ar    1  UNL1       -0.0002
     20 C         138.7728  140.4454  165.7213 C.ar    1  UNL1       -0.0000
     21 C         139.5222  139.6071  166.7141 C.ar    1  UNL1       -0.0002
     22 C         140.7590  140.1467  167.3693 C.ar    1  UNL1       -0.0017
@<TRIPOS>BOND
     1     1     2    1
     2     2    11    1
     3    11    12   ar
     4    12    13   ar
     5    13    14   ar
     6    14    15   ar
     7    15    16   ar
     8     2    17    1
     9    17    18   ar
    10    18    19   ar
    11    19    20   ar
    12    20    21   ar
    13    21    22   ar
    14     2     4    1
    15     4     5    1
    16     5     6    1
    17     6     7    1
    18     7     8    1
    19     8     9    1
    20    16    11   ar
    21    22    17   ar
    22     9     4    1
    23     1     3    1
    24     7    10    1
@<TRIPOS>MOLECULE
*****
 22 24 0 0 0
SMALL
GASTEIGER

@<TRIPOS>ATOM
      1 O         140.7004  139.7655  168.9398 O.3     1  UNL1       -0.3786
      2 C         140.8874  140.7317  167.8078 C.3     1  UNL1        0.1256
      3 H         140.2750  138.9588  168.6095 H       1  UNL1        0.2111
      4 C         141.5190  141.7132  168.7499 C.3     1  UNL1        0.0353
      5 C         142.9511  141.5421  169.1622 C.3     1  UNL1        0.0201
      6 C         143.5827  142.5237  170.1043 C.3     1  UNL1        0.0687
      7 N         142.7824  143.6764  170.6340 N.3     1  UNL1       -0.2975
      8 C         141.3503  143.8476  170.2218 C.3     1  UNL1        0.0687
      9 C         140.7186  142.8660  169.2796 C.3     1  UNL1        0.0201
     10 H         143.2722  144.5271  170.3569 H       1  UNL1        0.1232
     11 C         140.2557  139.7501  166.8657 C.ar    1  UNL1        0.0056
     12 C         138.8073  139.3907  167.0171 C.ar    1  UNL1       -0.0017
     13 C         138.1757  138.4091  166.0750 C.ar    1  UNL1       -0.0002
     14 C         138.9925  137.7870  164.9815 C.ar    1  UNL1       -0.0000
     15 C         140.4409  138.1464  164.8300 C.ar    1  UNL1       -0.0002
     16 C         141.0725  139.1280  165.7721 C.ar    1  UNL1       -0.0017
     17 C         141.0743  141.6978  166.6758 C.ar    1  UNL1        0.0056
     18 C         139.8874  142.3991  166.0845 C.ar    1  UNL1       -0.0017
     19 C         140.0743  143.3653  164.9525 C.ar    1  UNL1       -0.0002
     20 C         141.4481  143.6303  164.4117 C.ar    1  UNL1       -0.0000
     21 C         142.6349  142.9290  165.0029 C.ar    1  UNL1       -0.0002
     22 C         142.4481  141.9628  166.1350 C.ar    1  UNL1       -0.0017
@<TRIPOS>BOND
     1     1     2    1
     2     2    11    1
     3    11    12   ar
     4    12    13   ar
     5    13    14   ar
     6    14    15   ar
     7    15    16   ar
     8     2    17    1
     9    17    18   ar
    10    18    19   ar
    11    19    20   ar
    12    20    21   ar
    13    21    22   ar
    14     2     4    1
    15     4     5    1
    16     5     6    1
    17     6     7    1
    18     7     8    1
    19     8     9    1
    20    16    11   ar
    21    22    17   ar
    22     9     4    1
    23     1     3    1
    24     7    10    1
@<TRIPOS>MOLECULE
*****
 22 24 0 0 0
SMALL
GASTEIGER

@<TRIPOS>ATOM
      1 O         140.7093  139.7698  168.9323 O.3     1  UNL1       -0.3786
      2 C         140.8981  140.7390  167.8032 C.3     1  UNL1        0.1256
      3 H         140.2802  138.9659  168.6000 H       1  UNL1        0.2111
      4 C         141.5351  141.7150  168.7474 C.3     1  UNL1        0.0353
      5 C         140.7391  142.8670  169.2852 C.3     1  UNL1        0.0201
      6 C         141.3761  143.8430  170.2295 C.3     1  UNL1        0.0687
      7 N         142.8091  143.6669  170.6360 N.3     1  UNL1       -0.2975
      8 C         143.6052  142.5149  170.0984 C.3     1  UNL1        0.0687
      9 C         142.9682  141.5389  169.1540 C.3     1  UNL1        0.0201
     10 H         142.8186  143.5824  171.6525 H       1  UNL1        0.1232
     11 C         140.2611  139.7630  166.8588 C.ar    1  UNL1        0.0056
     12 C         138.8126  139.4056  167.0141 C.ar    1  UNL1       -0.0017
     13 C         138.1756  138.4296  166.0697 C.ar    1  UNL1       -0.0002
     14 C         138.9871  137.8112  164.9702 C.ar    1  UNL1       -0.0000
     15 C         140.4356  138.1687  164.8149 C.ar    1  UNL1       -0.0002
     16 C         141.0725  139.1446  165.7593 C.ar    1  UNL1       -0.0017
     17 C         141.0870  141.7082  166.6741 C.ar    1  UNL1        0.0056
     18 C         142.4616  141.9740  166.1357 C.ar    1  UNL1       -0.0017
     19 C         142.6505  142.9432  165.0066 C.ar    1  UNL1       -0.0002
     20 C         141.4647  143.6466  164.4158 C.ar    1  UNL1       -0.0000
     21 C         140.0901  143.3809  164.9541 C.ar    1  UNL1       -0.0002
     22 C         139.9012  142.4117  166.0832 C.ar    1  UNL1       -0.0017
@<TRIPOS>BOND
     1     1     2    1
     2     2    11    1
     3    11    12   ar
     4    12    13   ar
     5    13    14   ar
     6    14    15   ar
     7    15    16   ar
     8     2    17    1
     9    17    18   ar
    10    18    19   ar
    11    19    20   ar
    12    20    21   ar
    13    21    22   ar
    14     2     4    1
    15     4     5    1
    16     5     6    1
    17     6     7    1
    18     7     8    1
    19     8     9    1
    20    16    11   ar
    21    22    17   ar
    22     9     4    1
    23     1     3    1
    24     7    10    1
@<TRIPOS>MOLECULE
*****
 22 24 0 0 0
SMALL
GASTEIGER

@<TRIPOS>ATOM
      1 O         140.4653  142.7799  167.3606 O.3     1  UNL1       -0.3786
      2 C         140.1042  141.4447  166.7803 C.3     1  UNL1        0.1256
      3 H         140.2779  143.4759  166.7115 H       1  UNL1        0.2111
      4 C         140.5392  140.7751  168.0500 C.3     1  UNL1        0.0353
      5 C         141.8555  140.0579  168.1069 C.3     1  UNL1        0.0201
      6 C         142.2904  139.3883  169.3767 C.3     1  UNL1        0.0687
      7 N         141.4092  139.4359  170.5897 N.3     1  UNL1       -0.2975
      8 C         140.0931  140.1531  170.5328 C.3     1  UNL1        0.0687
      9 C         139.6580  140.8227  169.2630 C.3     1  UNL1        0.0201
     10 H         141.9530  139.8768  171.3315 H       1  UNL1        0.1232
     11 C         139.6692  142.1143  165.5104 C.ar    1  UNL1        0.0056
     12 C         138.2799  141.8999  164.9873 C.ar    1  UNL1       -0.0017
     13 C         137.8449  142.5694  163.7175 C.ar    1  UNL1       -0.0002
     14 C         138.7993  143.4534  162.9708 C.ar    1  UNL1       -0.0000
     15 C         140.1887  143.6679  163.4938 C.ar    1  UNL1       -0.0002
     16 C         140.6236  142.9983  164.7636 C.ar    1  UNL1       -0.0017
     17 C         139.7432  140.1095  166.1999 C.ar    1  UNL1        0.0056
     18 C         140.5865  139.5112  165.1132 C.ar    1  UNL1       -0.0017
     19 C         140.2255  138.1761  164.5328 C.ar    1  UNL1       -0.0002
     20 C         139.0211  137.4391  165.0391 C.ar    1  UNL1       -0.0000
     21 C         138.1777  138.0373  166.1257 C.ar    1  UNL1       -0.0002
     22 C         138.5388  139.3726  166.7062 C.ar    1  UNL1       -0.0017
@<TRIPOS>BOND
     1     1     2    1
     2     2    11    1
     3    11    12   ar
     4    12    13   ar
     5    13    14   ar
     6    14    15   ar
     7    15    16   ar
     8     2    17    1
     9    17    18   ar
    10    18    19   ar
    11    19    20   ar
    12    20    21   ar
    13    21    22   ar
    14     2     4    1
    15     4     5    1
    16     5     6    1
    17     6     7    1
    18     7     8    1
    19     8     9    1
    20    16    11   ar
    21    22    17   ar
    22     9     4    1
    23     1     3    1
    24     7    10    1
@<TRIPOS>MOLECULE
*****
 22 24 0 0 0
SMALL
GASTEIGER

@<TRIPOS>ATOM
      1 O         138.8500  139.4600  168.1273 O.3     1  UNL1       -0.3786
      2 C         140.0764  139.9944  167.4490 C.3     1  UNL1        0.1256
      3 H         138.1977  139.2002  167.4581 H       1  UNL1        0.2111
      4 C         140.7127  140.2317  168.7865 C.3     1  UNL1        0.0353
      5 C         141.9731  139.5074  169.1565 C.3     1  UNL1        0.0201
      6 C         142.6094  139.7447  170.4939 C.3     1  UNL1        0.0687
      7 N         141.9854  140.7062  171.4614 N.3     1  UNL1       -0.2975
      8 C         140.7250  141.4305  171.0914 C.3     1  UNL1        0.0687
      9 C         140.0887  141.1932  169.7539 C.3     1  UNL1        0.0201
     10 H         142.6867  141.4192  171.6617 H       1  UNL1        0.1232
     11 C         139.4402  139.7572  166.1115 C.ar    1  UNL1        0.0056
     12 C         138.7579  140.8846  165.3949 C.ar    1  UNL1       -0.0017
     13 C         138.1217  140.6473  164.0575 C.ar    1  UNL1       -0.0002
     14 C         138.1677  139.2826  163.4365 C.ar    1  UNL1       -0.0000
     15 C         138.8500  138.1552  164.1531 C.ar    1  UNL1       -0.0002
     16 C         139.4862  138.3925  165.4905 C.ar    1  UNL1       -0.0017
     17 C         141.3029  140.5289  166.7707 C.ar    1  UNL1        0.0056
     18 C         142.1999  139.6026  166.0041 C.ar    1  UNL1       -0.0017
     19 C         143.4263  140.1371  165.3258 C.ar    1  UNL1       -0.0002
     20 C         143.7559  141.5977  165.4141 C.ar    1  UNL1       -0.0000
     21 C         142.8590  142.5240  166.1806 C.ar    1  UNL1       -0.0002
     22 C         141.6325  141.9896  166.8590 C.ar    1  UNL1       -0.0017
@<TRIPOS>BOND
     1     1     2    1
     2     2    11    1
     3    11    12   ar
     4    12    13   ar
     5    13    14   ar
     6    14    15   ar
     7    15    16   ar
     8     2    17    1
     9    17    18   ar
    10    18    19   ar
    11    19    20   ar
    12    20    21   ar
    13    21    22   ar
    14     2     4    1
    15     4     5    1
    16     5     6    1
    17     6     7    1
    18     7     8    1
    19     8     9    1
    20    16    11   ar
    21    22    17   ar
    22     9     4    1
    23     1     3    1
    24     7    10    1
@<TRIPOS>MOLECULE
*****
 22 24 0 0 0
SMALL
GASTEIGER

@<TRIPOS>ATOM
      1 O         142.2575  140.3874  164.7398 O.3     1  UNL1       -0.3786
      2 C         141.1328  141.3783  164.6849 C.3     1  UNL1        0.1256
      3 H         141.9203  139.5324  165.0497 H       1  UNL1        0.2111
      4 C         142.0836  142.4304  164.1960 C.3     1  UNL1        0.0353
      5 C         141.9664  142.9549  162.7955 C.3     1  UNL1        0.0201
      6 C         142.9172  144.0069  162.3065 C.3     1  UNL1        0.0687
      7 N         143.9852  144.5346  163.2180 N.3     1  UNL1       -0.2975
      8 C         144.1025  144.0102  164.6184 C.3     1  UNL1        0.0687
      9 C         143.1517  142.9581  165.1074 C.3     1  UNL1        0.0201
     10 H         143.8384  145.5412  163.2919 H       1  UNL1        0.1232
     11 C         140.1819  140.3263  165.1739 C.ar    1  UNL1        0.0056
     12 C         139.8132  139.1766  164.2839 C.ar    1  UNL1       -0.0017
     13 C         138.8624  138.1246  164.7729 C.ar    1  UNL1       -0.0002
     14 C         138.2803  138.2223  166.1519 C.ar    1  UNL1       -0.0000
     15 C         138.6490  139.3720  167.0419 C.ar    1  UNL1       -0.0002
     16 C         139.5999  140.4240  166.5529 C.ar    1  UNL1       -0.0017
     17 C         140.0081  142.3693  164.6300 C.ar    1  UNL1        0.0056
     18 C         140.0006  143.5474  165.5585 C.ar    1  UNL1       -0.0017
     19 C         138.8759  144.5384  165.5037 C.ar    1  UNL1       -0.0002
     20 C         137.7587  144.3512  164.5203 C.ar    1  UNL1       -0.0000
     21 C         137.7663  143.1732  163.5919 C.ar    1  UNL1       -0.0002
     22 C         138.8910  142.1822  163.6467 C.ar    1  UNL1       -0.0017
@<TRIPOS>BOND
     1     1     2    1
     2     2    11    1
     3    11    12   ar
     4    12    13   ar
     5    13    14   ar
     6    14    15   ar
     7    15    16   ar
     8     2    17    1
     9    17    18   ar
    10    18    19   ar
    11    19    20   ar
    12    20    21   ar
    13    21    22   ar
    14     2     4    1
    15     4     5    1
    16     5     6    1
    17     6     7    1
    18     7     8    1
    19     8     9    1
    20    16    11   ar
    21    22    17   ar
    22     9     4    1
    23     1     3    1
    24     7    10    1
@<TRIPOS>MOLECULE
*****
 22 24 0 0 0
SMALL
GASTEIGER

@<TRIPOS>ATOM
      1 O         140.4152  142.7733  166.9256 O.3     1  UNL1       -0.3786
      2 C         140.0719  141.4128  166.3955 C.3     1  UNL1        0.1256
      3 H         140.8055  142.6869  167.8095 H       1  UNL1        0.2111
      4 C         139.5532  142.0355  165.1333 C.3     1  UNL1        0.0353
      5 C         138.1196  141.8428  164.7360 C.3     1  UNL1        0.0201
      6 C         137.6009  142.4655  163.4738 C.3     1  UNL1        0.0687
      7 N         138.5158  143.2810  162.6089 N.3     1  UNL1       -0.2975
      8 C         139.9493  143.4738  163.0062 C.3     1  UNL1        0.0687
      9 C         140.4680  142.8510  164.2684 C.3     1  UNL1        0.0201
     10 H         138.1024  144.2108  162.5377 H       1  UNL1        0.1232
     11 C         140.5906  140.7900  167.6577 C.ar    1  UNL1        0.0056
     12 C         141.9239  140.1028  167.6620 C.ar    1  UNL1       -0.0017
     13 C         142.4425  139.4800  168.9242 C.ar    1  UNL1       -0.0002
     14 C         141.6279  139.5445  170.1821 C.ar    1  UNL1       -0.0000
     15 C         140.2946  140.2317  170.1778 C.ar    1  UNL1       -0.0002
     16 C         139.7760  140.8545  168.9156 C.ar    1  UNL1       -0.0017
     17 C         139.7285  140.0523  165.8654 C.ar    1  UNL1        0.0056
     18 C         138.5893  139.2803  166.4623 C.ar    1  UNL1       -0.0017
     19 C         138.2459  137.9198  165.9321 C.ar    1  UNL1       -0.0002
     20 C         139.0418  137.3312  164.8051 C.ar    1  UNL1       -0.0000
     21 C         140.1809  138.1032  164.2082 C.ar    1  UNL1       -0.0002
     22 C         140.5244  139.4637  164.7383 C.ar    1  UNL1       -0.0017
@<TRIPOS>BOND
     1     1     2    1
     2     2    11    1
     3    11    12   ar
     4    12    13   ar
     5    13    14   ar
     6    14    15   ar
     7    15    16   ar
     8     2    17    1
     9    17    18   ar
    10    18    19   ar
    11    19    20   ar
    12    20    21   ar
    13    21    22   ar
    14     2     4    1
    15     4     5    1
    16     5     6    1
    17     6     7    1
    18     7     8    1
    19     8     9    1
    20    16    11   ar
    21    22    17   ar
    22     9     4    1
    23     1     3    1
    24     7    10    1
@<TRIPOS>MOLECULE
*****
 22 24 0 0 0
SMALL
GASTEIGER

@<TRIPOS>ATOM
      1 O         142.3950  141.0222  165.2059 O.3     1  UNL1       -0.3786
      2 C         141.2208  141.8348  164.7466 C.3     1  UNL1        0.1256
      3 H         142.0869  140.3067  165.7838 H       1  UNL1        0.2111
      4 C         142.1414  142.7211  163.9611 C.3     1  UNL1        0.0353
      5 C         142.3024  144.1625  164.3439 C.3     1  UNL1        0.0201
      6 C         143.2229  145.0488  163.5585 C.3     1  UNL1        0.0687
      7 N         143.9826  144.4937  162.3902 N.3     1  UNL1       -0.2975
      8 C         143.8216  143.0524  162.0074 C.3     1  UNL1        0.0687
      9 C         142.9010  142.1660  162.7929 C.3     1  UNL1        0.0201
     10 H         144.9729  144.6370  162.5879 H       1  UNL1        0.1232
     11 C         140.3002  140.9485  165.5321 C.ar    1  UNL1        0.0056
     12 C         140.3933  140.9088  167.0287 C.ar    1  UNL1       -0.0017
     13 C         139.4727  140.0225  167.8141 C.ar    1  UNL1       -0.0002
     14 C         138.4590  139.1759  167.1030 C.ar    1  UNL1       -0.0000
     15 C         138.3658  139.2157  165.6064 C.ar    1  UNL1       -0.0002
     16 C         139.2865  140.1019  164.8210 C.ar    1  UNL1       -0.0017
     17 C         140.0467  142.6473  164.2873 C.ar    1  UNL1        0.0056
     18 C         139.5879  142.5632  162.8616 C.ar    1  UNL1       -0.0017
     19 C         138.4138  143.3757  162.4023 C.ar    1  UNL1       -0.0002
     20 C         137.6982  144.2725  163.3687 C.ar    1  UNL1       -0.0000
     21 C         138.1569  144.3567  164.7943 C.ar    1  UNL1       -0.0002
     22 C         139.3311  143.5441  165.2537 C.ar    1  UNL1       -0.0017
@<TRIPOS>BOND
     1     1     2    1
     2     2    11    1
     3    11    12   ar
     4    12    13   ar
     5    13    14   ar
     6    14    15   ar
     7    15    16   ar
     8     2    17    1
     9    17    18   ar
    10    18    19   ar
    11    19    20   ar
    12    20    21   ar
    13    21    22   ar
    14     2     4    1
    15     4     5    1
    16     5     6    1
    17     6     7    1
    18     7     8    1
    19     8     9    1
    20    16    11   ar
    21    22    17   ar
    22     9     4    1
    23     1     3    1
    24     7    10    1
