@<TRIPOS>MOLECULE
*****
 40 44 0 0 0
SMALL
GASTEIGER

@<TRIPOS>ATOM
      1 C         143.9648  140.2456  157.0229 C.3     1  UNL1        0.1534
      2 C         143.3005  140.5891  158.3231 C.3     1  UNL1        0.0469
      3 C         142.4359  139.4302  158.7225 C.3     1  UNL1        0.0798
      4 C         142.5659  138.3704  157.6690 C.3     1  UNL1        0.1101
      5 N         143.5107  138.8742  156.6186 N.am    1  UNL1       -0.2680
      6 C         143.9282  138.1364  155.3811 C.2     1  UNL1        0.2495
      7 O         144.8857  138.7711  154.4166 O.2     1  UNL1       -0.2699
      8 N         141.5900  139.3460  159.9583 N.3     1  UNL1       -0.2682
      9 C         140.4106  140.2580  160.1236 C.3     1  UNL1        0.0772
     10 C         139.5648  140.1737  161.3594 C.3     1  UNL1        0.0465
     11 C         139.8982  139.1774  162.4300 C.ar    1  UNL1        0.0105
     12 C         141.0775  138.2654  162.2648 C.ar    1  UNL1       -0.0072
     13 C         141.4109  137.2691  163.3354 C.ar    1  UNL1       -0.0030
     14 C         140.5650  137.1849  164.5712 C.ar    1  UNL1        0.0028
     15 C         139.3856  138.0969  164.7365 C.ar    1  UNL1        0.0366
     16 C         139.0522  139.0932  163.6659 C.ar    1  UNL1        0.1343
     17 C         141.9234  138.3497  161.0290 C.3     1  UNL1        0.0989
     18 O         137.8729  140.0052  163.8311 O.3     1  UNL1       -0.4758
     19 C         137.9966  141.2483  164.6616 C.3     1  UNL1        0.2054
     20 C         137.7178  142.5894  164.0505 C.3     1  UNL1        0.0473
     21 C         138.4261  143.8086  164.5621 C.3     1  UNL1        0.0037
     22 C         138.5494  144.9119  165.5707 C.3     1  UNL1        0.0001
     23 C         139.5299  144.8169  164.4396 C.3     1  UNL1        0.0001
     24 C         143.3883  136.7638  155.1083 C.ar    1  UNL1        0.0566
     25 C         142.2817  136.5774  154.1129 C.ar    1  UNL1        0.0044
     26 C         141.7417  135.2049  153.8400 C.ar    1  UNL1        0.0002
     27 C         142.3083  134.0187  154.5625 C.ar    1  UNL1        0.0274
     28 C         143.4149  134.2051  155.5578 C.ar    1  UNL1        0.1361
     29 C         143.9549  135.5776  155.8307 C.ar    1  UNL1        0.0411
     30 C         141.7683  132.6460  154.2895 C.3     1  UNL1        0.0952
     31 N         141.6636  131.6462  155.4028 N.3     1  UNL1       -0.3174
     32 H         142.5986  131.4003  155.7279 H       1  UNL1        0.1192
     33 H         141.1901  130.8087  155.0642 H       1  UNL1        0.1192
     34 O         143.9815  133.0189  156.2803 O.3     1  UNL1       -0.4717
     35 C         144.4084  133.1468  157.7125 C.3     1  UNL1        0.2525
     36 C         147.3036  141.5880  155.3496 C.3     1  UNL1        0.1107
     37 N         146.3524  140.7138  156.1118 N.am    1  UNL1       -0.3013
     38 C         144.9160  141.1197  156.2607 C.2     1  UNL1        0.2407
     39 O         144.4309  142.3998  155.6474 O.2     1  UNL1       -0.2733
     40 H         146.6707  139.8737  156.5143 H       1  UNL1        0.1495
@<TRIPOS>BOND
     1    36    37    1
     2    37    38   am
     3    38    39    2
     4     1    38    1
     5     1     2    1
     6     2     3    1
     7     3     8    1
     8     8     9    1
     9     9    10    1
    10    10    11    1
    11    11    12   ar
    12    12    13   ar
    13    13    14   ar
    14    14    15   ar
    15    15    16   ar
    16    16    18    1
    17    18    19    1
    18    19    20    1
    19    20    21    1
    20    21    22    1
    21    22    23    1
    22    12    17    1
    23     3     4    1
    24     4     5    1
    25     5     6   am
    26     6     7    2
    27     6    24    1
    28    24    25   ar
    29    25    26   ar
    30    26    27   ar
    31    27    30    1
    32    30    31    1
    33    27    28   ar
    34    28    34    1
    35    34    35    1
    36    28    29   ar
    37     5     1    1
    38    29    24   ar
    39    17     8    1
    40    16    11   ar
    41    23    21    1
    42    37    40    1
    43    31    32    1
    44    31    33    1
@<TRIPOS>MOLECULE
*****
 40 44 0 0 0
SMALL
GASTEIGER

@<TRIPOS>ATOM
      1 C         144.2141  140.2156  157.1003 C.3     1  UNL1        0.1534
      2 C         143.9348  140.3637  158.5666 C.3     1  UNL1        0.0469
      3 C         143.2263  139.1258  159.0309 C.3     1  UNL1        0.0798
      4 C         143.0676  138.2126  157.8515 C.3     1  UNL1        0.1101
      5 N         143.6781  138.8861  156.6584 N.am    1  UNL1       -0.2680
      6 C         143.7415  138.3282  155.2674 C.2     1  UNL1        0.2495
      7 O         144.3868  139.1212  154.1699 O.2     1  UNL1       -0.2699
      8 N         142.7585  138.8496  160.4291 N.3     1  UNL1       -0.2682
      9 C         141.4060  138.2442  160.6617 C.3     1  UNL1        0.0772
     10 C         140.9383  137.9681  162.0599 C.3     1  UNL1        0.0465
     11 C         141.8231  138.2973  163.2255 C.ar    1  UNL1        0.0105
     12 C         143.1756  138.9027  162.9929 C.ar    1  UNL1       -0.0072
     13 C         144.0604  139.2319  164.1586 C.ar    1  UNL1       -0.0030
     14 C         143.5927  138.9558  165.5567 C.ar    1  UNL1        0.0028
     15 C         142.2401  138.3503  165.7894 C.ar    1  UNL1        0.0366
     16 C         141.3553  138.0211  164.6237 C.ar    1  UNL1        0.1343
     17 C         143.6433  139.1789  161.5948 C.3     1  UNL1        0.0989
     18 O         140.0028  137.4157  164.8563 O.3     1  UNL1       -0.4758
     19 C         138.7906  138.2958  164.9347 C.3     1  UNL1        0.2054
     20 C         138.2685  138.7361  166.2702 C.3     1  UNL1        0.0473
     21 C         139.0804  139.6647  167.1237 C.3     1  UNL1        0.0037
     22 C         139.9132  140.9041  167.2661 C.3     1  UNL1        0.0001
     23 C         139.6538  140.0336  168.4598 C.3     1  UNL1        0.0001
     24 C         143.1595  136.9772  154.9741 C.ar    1  UNL1        0.0566
     25 C         141.9013  136.8620  154.1656 C.ar    1  UNL1        0.0044
     26 C         141.3193  135.5110  153.8723 C.ar    1  UNL1        0.0002
     27 C         141.9957  134.2751  154.3873 C.ar    1  UNL1        0.0274
     28 C         143.2539  134.3903  155.1957 C.ar    1  UNL1        0.1361
     29 C         143.8358  135.7413  155.4891 C.ar    1  UNL1        0.0411
     30 C         141.4137  132.9241  154.0939 C.3     1  UNL1        0.0952
     31 N         141.2954  131.9047  155.1879 N.3     1  UNL1       -0.3174
     32 H         142.2272  131.6261  155.4952 H       1  UNL1        0.1192
     33 H         140.7941  131.0879  154.8388 H       1  UNL1        0.1192
     34 O         143.9302  133.1545  155.7107 O.3     1  UNL1       -0.4717
     35 C         144.1934  133.0002  157.1794 C.3     1  UNL1        0.2525
     36 C         147.0328  142.0148  154.9631 C.3     1  UNL1        0.1107
     37 N         146.3394  141.0099  155.8344 N.am    1  UNL1       -0.3013
     38 C         144.9075  141.2205  156.2289 C.2     1  UNL1        0.2407
     39 O         144.1692  142.4360  155.7520 O.2     1  UNL1       -0.2733
     40 H         146.8239  140.2121  156.1475 H       1  UNL1        0.1495
@<TRIPOS>BOND
     1    36    37    1
     2    37    38   am
     3    38    39    2
     4     1    38    1
     5     1     2    1
     6     2     3    1
     7     3     8    1
     8     8     9    1
     9     9    10    1
    10    10    11    1
    11    11    12   ar
    12    12    13   ar
    13    13    14   ar
    14    14    15   ar
    15    15    16   ar
    16    16    18    1
    17    18    19    1
    18    19    20    1
    19    20    21    1
    20    21    22    1
    21    22    23    1
    22    12    17    1
    23     3     4    1
    24     4     5    1
    25     5     6   am
    26     6     7    2
    27     6    24    1
    28    24    25   ar
    29    25    26   ar
    30    26    27   ar
    31    27    30    1
    32    30    31    1
    33    27    28   ar
    34    28    34    1
    35    34    35    1
    36    28    29   ar
    37     5     1    1
    38    29    24   ar
    39    17     8    1
    40    16    11   ar
    41    23    21    1
    42    37    40    1
    43    31    32    1
    44    31    33    1
@<TRIPOS>MOLECULE
*****
 40 44 0 0 0
SMALL
GASTEIGER

@<TRIPOS>ATOM
      1 C         139.9420  143.4093  162.9318 C.3     1  UNL1        0.1534
      2 C         140.2128  143.1380  164.3820 C.3     1  UNL1        0.0469
      3 C         140.9145  141.8161  164.4832 C.3     1  UNL1        0.0798
      4 C         141.0775  141.2705  163.0955 C.3     1  UNL1        0.1101
      5 N         140.4765  142.2551  162.1367 N.am    1  UNL1       -0.2680
      6 C         140.4198  142.1108  160.6447 C.2     1  UNL1        0.2495
      7 O         139.7838  143.1834  159.8111 O.2     1  UNL1       -0.2699
      8 N         141.3728  141.1559  165.7497 N.3     1  UNL1       -0.2682
      9 C         141.9812  139.7856  165.7035 C.3     1  UNL1        0.0772
     10 C         142.4395  139.1255  166.9700 C.3     1  UNL1        0.0465
     11 C         142.2893  139.8355  168.2828 C.ar    1  UNL1        0.0105
     12 C         141.6809  141.2058  168.3290 C.ar    1  UNL1       -0.0072
     13 C         141.5307  141.9158  169.6417 C.ar    1  UNL1       -0.0030
     14 C         141.9890  141.2556  170.9082 C.ar    1  UNL1        0.0028
     15 C         142.5975  139.8853  170.8621 C.ar    1  UNL1        0.0366
     16 C         142.7476  139.1752  169.5493 C.ar    1  UNL1        0.1343
     17 C         141.2226  141.8659  167.0625 C.3     1  UNL1        0.0989
     18 O         143.3561  137.8050  169.5031 O.3     1  UNL1       -0.4758
     19 C         143.7093  137.0978  170.7780 C.3     1  UNL1        0.2054
     20 C         144.6878  135.9612  170.7588 C.3     1  UNL1        0.0473
     21 C         145.5470  135.6910  171.9582 C.3     1  UNL1        0.0037
     22 C         146.1118  134.7297  172.9616 C.3     1  UNL1        0.0001
     23 C         146.4705  136.1844  173.0323 C.3     1  UNL1        0.0001
     24 C         140.9992  140.8939  159.9864 C.ar    1  UNL1        0.0566
     25 C         140.1853  139.6382  159.8825 C.ar    1  UNL1        0.0044
     26 C         140.7647  138.4213  159.2241 C.ar    1  UNL1        0.0002
     27 C         142.1579  138.4601  158.6696 C.ar    1  UNL1        0.0274
     28 C         142.9718  139.7158  158.7735 C.ar    1  UNL1        0.1361
     29 C         142.3924  140.9327  159.4319 C.ar    1  UNL1        0.0411
     30 C         142.7373  137.2431  158.0112 C.3     1  UNL1        0.0952
     31 N         143.4669  137.3716  156.7070 N.3     1  UNL1       -0.3174
     32 H         142.8144  137.6648  155.9798 H       1  UNL1        0.1192
     33 H         143.8744  136.4711  156.4552 H       1  UNL1        0.1192
     34 O         144.3649  139.7546  158.2191 O.3     1  UNL1       -0.4717
     35 C         144.7631  140.8430  157.2667 C.3     1  UNL1        0.2525
     36 C         139.3587  146.8510  161.0439 C.3     1  UNL1        0.1107
     37 N         140.0436  145.6385  161.6011 N.am    1  UNL1       -0.3013
     38 C         139.2572  144.6219  162.3746 C.2     1  UNL1        0.2407
     39 O         137.7858  144.8180  162.5907 O.2     1  UNL1       -0.2733
     40 H         141.0093  145.5098  161.4592 H       1  UNL1        0.1495
@<TRIPOS>BOND
     1    36    37    1
     2    37    38   am
     3    38    39    2
     4     1    38    1
     5     1     2    1
     6     2     3    1
     7     3     8    1
     8     8     9    1
     9     9    10    1
    10    10    11    1
    11    11    12   ar
    12    12    13   ar
    13    13    14   ar
    14    14    15   ar
    15    15    16   ar
    16    16    18    1
    17    18    19    1
    18    19    20    1
    19    20    21    1
    20    21    22    1
    21    22    23    1
    22    12    17    1
    23     3     4    1
    24     4     5    1
    25     5     6   am
    26     6     7    2
    27     6    24    1
    28    24    25   ar
    29    25    26   ar
    30    26    27   ar
    31    27    30    1
    32    30    31    1
    33    27    28   ar
    34    28    34    1
    35    34    35    1
    36    28    29   ar
    37     5     1    1
    38    29    24   ar
    39    17     8    1
    40    16    11   ar
    41    23    21    1
    42    37    40    1
    43    31    32    1
    44    31    33    1
@<TRIPOS>MOLECULE
*****
 40 44 0 0 0
SMALL
GASTEIGER

@<TRIPOS>ATOM
      1 C         144.0461  140.4482  157.1756 C.3     1  UNL1        0.1534
      2 C         143.5786  140.9178  158.5213 C.3     1  UNL1        0.0469
      3 C         142.7237  139.8390  159.1175 C.3     1  UNL1        0.0798
      4 C         142.6629  138.7026  158.1403 C.3     1  UNL1        0.1101
      5 N         143.4802  139.0791  156.9402 N.am    1  UNL1       -0.2680
      6 C         143.6940  138.2347  155.7190 C.2     1  UNL1        0.2495
      7 O         144.5413  138.7468  154.5920 O.2     1  UNL1       -0.2699
      8 N         142.0483  139.8880  160.4560 N.3     1  UNL1       -0.2682
      9 C         142.2313  141.0821  161.3452 C.3     1  UNL1        0.0772
     10 C         141.5559  141.1310  162.6835 C.3     1  UNL1        0.0465
     11 C         140.6974  139.9860  163.1327 C.ar    1  UNL1        0.0105
     12 C         140.5143  138.7919  162.2436 C.ar    1  UNL1       -0.0072
     13 C         139.6558  137.6469  162.6928 C.ar    1  UNL1       -0.0030
     14 C         138.9803  137.6958  164.0311 C.ar    1  UNL1        0.0028
     15 C         139.1634  138.8899  164.9204 C.ar    1  UNL1        0.0366
     16 C         140.0219  140.0350  164.4712 C.ar    1  UNL1        0.1343
     17 C         141.1898  138.7430  160.9052 C.3     1  UNL1        0.0989
     18 O         140.2050  141.2290  165.3604 O.3     1  UNL1       -0.4758
     19 C         140.8239  141.0661  166.7171 C.3     1  UNL1        0.2054
     20 C         142.2991  140.8268  166.8446 C.3     1  UNL1        0.0473
     21 C         142.9486  139.7179  166.0710 C.3     1  UNL1        0.0037
     22 C         143.0828  138.2568  165.7593 C.3     1  UNL1        0.0001
     23 C         143.9394  139.2583  165.0429 C.3     1  UNL1        0.0001
     24 C         143.0606  136.8783  155.6247 C.ar    1  UNL1        0.0566
     25 C         142.0985  136.5754  154.5145 C.ar    1  UNL1        0.0044
     26 C         141.4651  135.2190  154.4202 C.ar    1  UNL1        0.0002
     27 C         141.7939  134.1655  155.4361 C.ar    1  UNL1        0.0274
     28 C         142.7560  134.4684  156.5463 C.ar    1  UNL1        0.1361
     29 C         143.3894  135.8248  156.6406 C.ar    1  UNL1        0.0411
     30 C         141.1604  132.8090  155.3418 C.3     1  UNL1        0.0952
     31 N         141.9777  131.5795  155.6070 N.3     1  UNL1       -0.3174
     32 H         142.6928  131.4844  154.8858 H       1  UNL1        0.1192
     33 H         141.3716  130.7592  155.5950 H       1  UNL1        0.1192
     34 O         143.0846  133.4149  157.5622 O.3     1  UNL1       -0.4717
     35 C         144.5164  133.0952  157.8748 C.3     1  UNL1        0.2525
     36 C         147.2320  141.5632  155.0883 C.3     1  UNL1        0.1107
     37 N         146.3529  140.7982  156.0327 N.am    1  UNL1       -0.3013
     38 C         144.9252  141.2132  156.2313 C.2     1  UNL1        0.2407
     39 O         144.3766  142.3934  155.4854 O.2     1  UNL1       -0.2733
     40 H         146.7130  140.0236  156.5222 H       1  UNL1        0.1495
@<TRIPOS>BOND
     1    36    37    1
     2    37    38   am
     3    38    39    2
     4     1    38    1
     5     1     2    1
     6     2     3    1
     7     3     8    1
     8     8     9    1
     9     9    10    1
    10    10    11    1
    11    11    12   ar
    12    12    13   ar
    13    13    14   ar
    14    14    15   ar
    15    15    16   ar
    16    16    18    1
    17    18    19    1
    18    19    20    1
    19    20    21    1
    20    21    22    1
    21    22    23    1
    22    12    17    1
    23     3     4    1
    24     4     5    1
    25     5     6   am
    26     6     7    2
    27     6    24    1
    28    24    25   ar
    29    25    26   ar
    30    26    27   ar
    31    27    30    1
    32    30    31    1
    33    27    28   ar
    34    28    34    1
    35    34    35    1
    36    28    29   ar
    37     5     1    1
    38    29    24   ar
    39    17     8    1
    40    16    11   ar
    41    23    21    1
    42    37    40    1
    43    31    32    1
    44    31    33    1
@<TRIPOS>MOLECULE
*****
 40 44 0 0 0
SMALL
GASTEIGER

@<TRIPOS>ATOM
      1 C         143.5583  137.8302  156.1402 C.3     1  UNL1        0.1534
      2 C         143.5072  136.4884  155.4716 C.3     1  UNL1        0.0469
      3 C         142.7973  135.5392  156.3909 C.3     1  UNL1        0.0798
      4 C         142.4097  136.2943  157.6277 C.3     1  UNL1        0.1101
      5 N         142.8800  137.7102  157.4727 N.am    1  UNL1       -0.2680
      6 C         142.7031  138.8126  158.4744 C.2     1  UNL1        0.2495
      7 O         143.2293  140.1859  158.1792 O.2     1  UNL1       -0.2699
      8 N         142.5232  134.0893  156.1209 N.3     1  UNL1       -0.2682
      9 C         141.4176  133.6964  155.1865 C.3     1  UNL1        0.0772
     10 C         141.1435  132.2466  154.9165 C.3     1  UNL1        0.0465
     11 C         141.9751  131.1897  155.5808 C.ar    1  UNL1        0.0105
     12 C         143.0808  131.5826  156.5152 C.ar    1  UNL1       -0.0072
     13 C         143.9124  130.5257  157.1796 C.ar    1  UNL1       -0.0030
     14 C         143.6384  129.0759  156.9096 C.ar    1  UNL1        0.0028
     15 C         142.5327  128.6830  155.9751 C.ar    1  UNL1        0.0366
     16 C         141.7010  129.7399  155.3108 C.ar    1  UNL1        0.1343
     17 C         143.3548  133.0324  156.7852 C.3     1  UNL1        0.0989
     18 O         140.5954  129.3470  154.3764 O.3     1  UNL1       -0.4758
     19 C         140.6846  128.0624  153.6069 C.3     1  UNL1        0.2054
     20 C         139.8794  126.8725  154.0378 C.3     1  UNL1        0.0473
     21 C         139.3942  126.7681  155.4532 C.3     1  UNL1        0.0037
     22 C         138.3143  126.9697  156.4745 C.3     1  UNL1        0.0001
     23 C         139.6338  126.3855  156.8837 C.3     1  UNL1        0.0001
     24 C         141.9999  138.5418  159.7714 C.ar    1  UNL1        0.0566
     25 C         142.7938  138.2075  160.9994 C.ar    1  UNL1        0.0044
     26 C         142.0906  137.9367  162.2964 C.ar    1  UNL1        0.0002
     27 C         140.5936  138.0001  162.3654 C.ar    1  UNL1        0.0274
     28 C         139.7996  138.3344  161.1374 C.ar    1  UNL1        0.1361
     29 C         140.5028  138.6053  159.8404 C.ar    1  UNL1        0.0411
     30 C         139.8904  137.7293  163.6624 C.3     1  UNL1        0.0952
     31 N         138.9694  138.7596  164.2457 N.3     1  UNL1       -0.3174
     32 H         139.5071  139.5844  164.5120 H       1  UNL1        0.1192
     33 H         138.5067  138.3748  165.0692 H       1  UNL1        0.1192
     34 O         138.3027  138.3979  161.2064 O.3     1  UNL1       -0.4717
     35 C         137.5838  139.6405  160.7715 C.3     1  UNL1        0.2525
     36 C         146.1163  140.8039  155.5378 C.3     1  UNL1        0.1107
     37 N         145.4959  139.5605  156.1025 N.am    1  UNL1       -0.3013
     38 C         144.1787  139.0736  155.5754 C.2     1  UNL1        0.2407
     39 O         143.4819  139.8301  154.4835 O.2     1  UNL1       -0.2733
     40 H         145.9533  139.0640  156.8192 H       1  UNL1        0.1495
@<TRIPOS>BOND
     1    36    37    1
     2    37    38   am
     3    38    39    2
     4     1    38    1
     5     1     2    1
     6     2     3    1
     7     3     8    1
     8     8     9    1
     9     9    10    1
    10    10    11    1
    11    11    12   ar
    12    12    13   ar
    13    13    14   ar
    14    14    15   ar
    15    15    16   ar
    16    16    18    1
    17    18    19    1
    18    19    20    1
    19    20    21    1
    20    21    22    1
    21    22    23    1
    22    12    17    1
    23     3     4    1
    24     4     5    1
    25     5     6   am
    26     6     7    2
    27     6    24    1
    28    24    25   ar
    29    25    26   ar
    30    26    27   ar
    31    27    30    1
    32    30    31    1
    33    27    28   ar
    34    28    34    1
    35    34    35    1
    36    28    29   ar
    37     5     1    1
    38    29    24   ar
    39    17     8    1
    40    16    11   ar
    41    23    21    1
    42    37    40    1
    43    31    32    1
    44    31    33    1
@<TRIPOS>MOLECULE
*****
 40 44 0 0 0
SMALL
GASTEIGER

@<TRIPOS>ATOM
      1 C         141.7050  142.9331  162.0926 C.3     1  UNL1        0.1534
      2 C         141.1143  143.0850  160.7222 C.3     1  UNL1        0.0469
      3 C         139.9659  142.1272  160.6037 C.3     1  UNL1        0.0798
      4 C         139.8470  141.3834  161.9008 C.3     1  UNL1        0.1101
      5 N         140.9217  141.8814  162.8210 N.am    1  UNL1       -0.2680
      6 C         141.1698  141.4104  164.2234 C.2     1  UNL1        0.2495
      7 O         142.2882  142.0044  165.0273 O.2     1  UNL1       -0.2699
      8 N         139.0903  141.9453  159.3994 N.3     1  UNL1       -0.2682
      9 C         138.2931  140.6853  159.2351 C.3     1  UNL1        0.0772
     10 C         137.4176  140.5035  158.0309 C.3     1  UNL1        0.0465
     11 C         137.3391  141.5815  156.9909 C.ar    1  UNL1        0.0105
     12 C         138.1363  142.8415  157.1551 C.ar    1  UNL1       -0.0072
     13 C         138.0579  143.9196  156.1151 C.ar    1  UNL1       -0.0030
     14 C         137.1823  143.7377  154.9109 C.ar    1  UNL1        0.0028
     15 C         136.3851  142.4777  154.7466 C.ar    1  UNL1        0.0366
     16 C         136.4635  141.3996  155.7866 C.ar    1  UNL1        0.1343
     17 C         139.0119  143.0234  158.3594 C.3     1  UNL1        0.0989
     18 O         135.6664  140.1396  155.6224 O.3     1  UNL1       -0.4758
     19 C         134.2959  140.1930  155.0148 C.3     1  UNL1        0.2054
     20 C         133.1136  140.5593  155.8621 C.3     1  UNL1        0.0473
     21 C         132.6498  139.6300  156.9443 C.3     1  UNL1        0.0037
     22 C         132.9565  138.6091  157.9996 C.3     1  UNL1        0.0001
     23 C         131.5397  139.0413  157.7636 C.3     1  UNL1        0.0001
     24 C         140.2993  140.3455  164.8219 C.ar    1  UNL1        0.0566
     25 C         139.8351  139.1949  163.9790 C.ar    1  UNL1        0.0044
     26 C         138.9647  138.1299  164.5776 C.ar    1  UNL1        0.0002
     27 C         138.5584  138.2157  166.0190 C.ar    1  UNL1        0.0274
     28 C         139.0226  139.3664  166.8619 C.ar    1  UNL1        0.1361
     29 C         139.8930  140.4313  166.2633 C.ar    1  UNL1        0.0411
     30 C         137.6879  137.1507  166.6175 C.3     1  UNL1        0.0952
     31 N         136.6459  137.5165  167.6327 N.3     1  UNL1       -0.3174
     32 H         137.1011  137.8602  168.4783 H       1  UNL1        0.1192
     33 H         136.0870  136.6936  167.8578 H       1  UNL1        0.1192
     34 O         138.6163  139.4522  168.3032 O.3     1  UNL1       -0.4717
     35 C         139.3762  140.3383  169.2451 C.3     1  UNL1        0.2525
     36 C         143.8481  145.4142  164.3289 C.3     1  UNL1        0.1107
     37 N         142.6794  144.6489  163.7828 N.am    1  UNL1       -0.3013
     38 C         142.8738  143.6984  162.6387 C.2     1  UNL1        0.2407
     39 O         144.2369  143.5133  162.0407 O.2     1  UNL1       -0.2733
     40 H         141.7847  144.7704  164.1752 H       1  UNL1        0.1495
@<TRIPOS>BOND
     1    36    37    1
     2    37    38   am
     3    38    39    2
     4     1    38    1
     5     1     2    1
     6     2     3    1
     7     3     8    1
     8     8     9    1
     9     9    10    1
    10    10    11    1
    11    11    12   ar
    12    12    13   ar
    13    13    14   ar
    14    14    15   ar
    15    15    16   ar
    16    16    18    1
    17    18    19    1
    18    19    20    1
    19    20    21    1
    20    21    22    1
    21    22    23    1
    22    12    17    1
    23     3     4    1
    24     4     5    1
    25     5     6   am
    26     6     7    2
    27     6    24    1
    28    24    25   ar
    29    25    26   ar
    30    26    27   ar
    31    27    30    1
    32    30    31    1
    33    27    28   ar
    34    28    34    1
    35    34    35    1
    36    28    29   ar
    37     5     1    1
    38    29    24   ar
    39    17     8    1
    40    16    11   ar
    41    23    21    1
    42    37    40    1
    43    31    32    1
    44    31    33    1
@<TRIPOS>MOLECULE
*****
 40 44 0 0 0
SMALL
GASTEIGER

@<TRIPOS>ATOM
      1 C         143.7912  137.6623  155.9851 C.3     1  UNL1        0.1534
      2 C         143.8779  136.2873  155.3919 C.3     1  UNL1        0.0469
      3 C         143.1751  135.3383  156.3168 C.3     1  UNL1        0.0798
      4 C         142.6541  136.1267  157.4817 C.3     1  UNL1        0.1101
      5 N         143.0348  137.5630  157.2767 N.am    1  UNL1       -0.2680
      6 C         142.7153  138.7004  158.2009 C.2     1  UNL1        0.2495
      7 O         143.1642  140.0910  157.8621 O.2     1  UNL1       -0.2699
      8 N         143.0206  133.8602  156.1127 N.3     1  UNL1       -0.2682
      9 C         144.1309  132.9294  156.5007 C.3     1  UNL1        0.0772
     10 C         143.9763  131.4514  156.2966 C.3     1  UNL1        0.0465
     11 C         142.7114  130.9043  155.7045 C.ar    1  UNL1        0.0105
     12 C         141.6010  131.8352  155.3165 C.ar    1  UNL1       -0.0072
     13 C         140.3360  131.2881  154.7244 C.ar    1  UNL1       -0.0030
     14 C         140.1814  129.8101  154.5203 C.ar    1  UNL1        0.0028
     15 C         141.2918  128.8792  154.9083 C.ar    1  UNL1        0.0366
     16 C         142.5568  129.4263  155.5004 C.ar    1  UNL1        0.1343
     17 C         141.7556  133.3131  155.5206 C.3     1  UNL1        0.0989
     18 O         143.6671  128.4954  155.8883 O.3     1  UNL1       -0.4758
     19 C         143.3599  127.0744  156.2578 C.3     1  UNL1        0.2054
     20 C         143.7367  126.5537  157.6131 C.3     1  UNL1        0.0473
     21 C         143.2937  127.2832  158.8466 C.3     1  UNL1        0.0037
     22 C         143.5814  128.2460  159.9603 C.3     1  UNL1        0.0001
     23 C         142.2385  127.5841  159.8694 C.3     1  UNL1        0.0001
     24 C         141.9470  138.4472  159.4641 C.ar    1  UNL1        0.0566
     25 C         142.6651  137.9946  160.7007 C.ar    1  UNL1        0.0044
     26 C         141.8967  137.7414  161.9639 C.ar    1  UNL1        0.0002
     27 C         140.4103  137.9409  161.9903 C.ar    1  UNL1        0.0274
     28 C         139.6922  138.3936  160.7536 C.ar    1  UNL1        0.1361
     29 C         140.4605  138.6468  159.4905 C.ar    1  UNL1        0.0411
     30 C         139.6419  137.6877  163.2535 C.3     1  UNL1        0.0952
     31 N         138.7078  138.7338  163.7856 N.3     1  UNL1       -0.3174
     32 H         139.2430  139.5532  164.0728 H       1  UNL1        0.1192
     33 H         138.2009  138.3604  164.5882 H       1  UNL1        0.1192
     34 O         138.2058  138.5931  160.7801 O.3     1  UNL1       -0.4717
     35 C         137.6274  139.9551  160.5343 C.3     1  UNL1        0.2525
     36 C         146.1504  140.7998  155.4017 C.3     1  UNL1        0.1107
     37 N         145.5808  139.5458  155.9958 N.am    1  UNL1       -0.3013
     38 C         144.3609  138.9163  155.3910 C.2     1  UNL1        0.2407
     39 O         143.7106  139.5409  154.1923 O.2     1  UNL1       -0.2733
     40 H         146.0076  139.1358  156.7825 H       1  UNL1        0.1495
@<TRIPOS>BOND
     1    36    37    1
     2    37    38   am
     3    38    39    2
     4     1    38    1
     5     1     2    1
     6     2     3    1
     7     3     8    1
     8     8     9    1
     9     9    10    1
    10    10    11    1
    11    11    12   ar
    12    12    13   ar
    13    13    14   ar
    14    14    15   ar
    15    15    16   ar
    16    16    18    1
    17    18    19    1
    18    19    20    1
    19    20    21    1
    20    21    22    1
    21    22    23    1
    22    12    17    1
    23     3     4    1
    24     4     5    1
    25     5     6   am
    26     6     7    2
    27     6    24    1
    28    24    25   ar
    29    25    26   ar
    30    26    27   ar
    31    27    30    1
    32    30    31    1
    33    27    28   ar
    34    28    34    1
    35    34    35    1
    36    28    29   ar
    37     5     1    1
    38    29    24   ar
    39    17     8    1
    40    16    11   ar
    41    23    21    1
    42    37    40    1
    43    31    32    1
    44    31    33    1
@<TRIPOS>MOLECULE
*****
 40 44 0 0 0
SMALL
GASTEIGER

@<TRIPOS>ATOM
      1 C         143.9375  137.7015  155.7959 C.3     1  UNL1        0.1534
      2 C         144.0771  136.2631  155.3940 C.3     1  UNL1        0.0469
      3 C         143.1955  135.4440  156.2895 C.3     1  UNL1        0.0798
      4 C         142.5110  136.3761  157.2447 C.3     1  UNL1        0.1101
      5 N         142.9695  137.7713  156.9397 N.am    1  UNL1       -0.2680
      6 C         142.5362  139.0176  157.6533 C.2     1  UNL1        0.2495
      7 O         143.0830  140.3501  157.2346 O.2     1  UNL1       -0.2699
      8 N         143.0279  133.9542  156.2385 N.3     1  UNL1       -0.2682
      9 C         144.0253  133.0636  156.9182 C.3     1  UNL1        0.0772
     10 C         143.8576  131.5739  156.8672 C.3     1  UNL1        0.0465
     11 C         142.6926  130.9748  156.1366 C.ar    1  UNL1        0.0105
     12 C         141.6952  131.8654  155.4569 C.ar    1  UNL1       -0.0072
     13 C         140.5302  131.2663  154.7263 C.ar    1  UNL1       -0.0030
     14 C         140.3626  129.7766  154.6753 C.ar    1  UNL1        0.0028
     15 C         141.3600  128.8859  155.3550 C.ar    1  UNL1        0.0366
     16 C         142.5250  129.4850  156.0856 C.ar    1  UNL1        0.1343
     17 C         141.8629  133.3551  155.5079 C.3     1  UNL1        0.0989
     18 O         143.5224  128.5944  156.7653 O.3     1  UNL1       -0.4758
     19 C         144.5827  127.9038  155.9597 C.3     1  UNL1        0.2054
     20 C         145.3195  128.6539  154.8900 C.3     1  UNL1        0.0473
     21 C         144.6044  129.0732  153.6399 C.3     1  UNL1        0.0037
     22 C         143.8754  128.7162  152.3785 C.3     1  UNL1        0.0001
     23 C         144.0947  130.1563  152.7360 C.3     1  UNL1        0.0001
     24 C         141.5561  138.9313  158.7855 C.ar    1  UNL1        0.0566
     25 C         140.0950  139.1560  158.5313 C.ar    1  UNL1        0.0044
     26 C         139.1149  139.0698  159.6636 C.ar    1  UNL1        0.0002
     27 C         139.5959  138.7587  161.0499 C.ar    1  UNL1        0.0274
     28 C         141.0571  138.5340  161.3040 C.ar    1  UNL1        0.1361
     29 C         142.0372  138.6203  160.1718 C.ar    1  UNL1        0.0411
     30 C         138.6158  138.6725  162.1821 C.3     1  UNL1        0.0952
     31 N         138.7495  137.5871  163.2088 N.3     1  UNL1       -0.3174
     32 H         138.5833  136.6815  162.7699 H       1  UNL1        0.1192
     33 H         138.0661  137.7355  163.9514 H       1  UNL1        0.1192
     34 O         141.5381  138.2230  162.6903 O.3     1  UNL1       -0.4717
     35 C         142.9935  138.3583  163.0272 C.3     1  UNL1        0.2525
     36 C         146.3837  140.7882  155.3078 C.3     1  UNL1        0.1107
     37 N         145.6791  139.6241  155.9389 N.am    1  UNL1       -0.3013
     38 C         144.6420  138.8657  155.1648 C.2     1  UNL1        0.2407
     39 O         144.3094  139.2715  153.7595 O.2     1  UNL1       -0.2733
     40 H         145.8974  139.3577  156.8612 H       1  UNL1        0.1495
@<TRIPOS>BOND
     1    36    37    1
     2    37    38   am
     3    38    39    2
     4     1    38    1
     5     1     2    1
     6     2     3    1
     7     3     8    1
     8     8     9    1
     9     9    10    1
    10    10    11    1
    11    11    12   ar
    12    12    13   ar
    13    13    14   ar
    14    14    15   ar
    15    15    16   ar
    16    16    18    1
    17    18    19    1
    18    19    20    1
    19    20    21    1
    20    21    22    1
    21    22    23    1
    22    12    17    1
    23     3     4    1
    24     4     5    1
    25     5     6   am
    26     6     7    2
    27     6    24    1
    28    24    25   ar
    29    25    26   ar
    30    26    27   ar
    31    27    30    1
    32    30    31    1
    33    27    28   ar
    34    28    34    1
    35    34    35    1
    36    28    29   ar
    37     5     1    1
    38    29    24   ar
    39    17     8    1
    40    16    11   ar
    41    23    21    1
    42    37    40    1
    43    31    32    1
    44    31    33    1
@<TRIPOS>MOLECULE
*****
 40 44 0 0 0
SMALL
GASTEIGER

@<TRIPOS>ATOM
      1 C         141.4000  143.8339  159.1974 C.3     1  UNL1        0.1534
      2 C         141.5454  143.8259  160.6903 C.3     1  UNL1        0.0469
      3 C         141.6352  142.3976  161.1397 C.3     1  UNL1        0.0798
      4 C         141.5452  141.5229  159.9246 C.3     1  UNL1        0.1101
      5 N         141.3999  142.4105  158.7241 N.am    1  UNL1       -0.2680
      6 C         141.2762  141.9548  157.3004 C.2     1  UNL1        0.2495
      7 O         141.1366  142.9638  156.1993 O.2     1  UNL1       -0.2699
      8 N         141.7880  141.9268  162.5557 N.3     1  UNL1       -0.2682
      9 C         141.3226  142.7930  163.6885 C.3     1  UNL1        0.0772
     10 C         141.4755  142.3221  165.1044 C.3     1  UNL1        0.0465
     11 C         142.0937  140.9851  165.3876 C.ar    1  UNL1        0.0105
     12 C         142.5590  140.1189  164.2549 C.ar    1  UNL1       -0.0072
     13 C         143.1772  138.7819  164.5381 C.ar    1  UNL1       -0.0030
     14 C         143.3301  138.3111  165.9540 C.ar    1  UNL1        0.0028
     15 C         142.8647  139.1773  167.0868 C.ar    1  UNL1        0.0366
     16 C         142.2465  140.5143  166.8036 C.ar    1  UNL1        0.1343
     17 C         142.4062  140.5898  162.8389 C.3     1  UNL1        0.0989
     18 O         141.7812  141.3805  167.9363 O.3     1  UNL1       -0.4758
     19 C         140.3374  141.3713  168.3434 C.3     1  UNL1        0.2054
     20 C         139.5871  140.0746  168.4170 C.3     1  UNL1        0.0473
     21 C         138.8434  139.5693  167.2164 C.3     1  UNL1        0.0037
     22 C         138.4120  139.7379  165.7897 C.3     1  UNL1        0.0001
     23 C         137.9865  138.5255  166.5635 C.3     1  UNL1        0.0001
     24 C         141.2920  140.4900  156.9777 C.ar    1  UNL1        0.0566
     25 C         140.1155  139.6307  157.3346 C.ar    1  UNL1        0.0044
     26 C         140.1314  138.1659  157.0119 C.ar    1  UNL1        0.0002
     27 C         141.3237  137.5604  156.3323 C.ar    1  UNL1        0.0274
     28 C         142.5002  138.4198  155.9755 C.ar    1  UNL1        0.1361
     29 C         142.4844  139.8845  156.2982 C.ar    1  UNL1        0.0411
     30 C         141.3395  136.0956  156.0096 C.3     1  UNL1        0.0952
     31 N         142.5131  135.2519  156.4106 N.3     1  UNL1       -0.3174
     32 H         143.3392  135.5499  155.8917 H       1  UNL1        0.1192
     33 H         142.3154  134.2732  156.2021 H       1  UNL1        0.1192
     34 O         143.6925  137.8144  155.2960 O.3     1  UNL1       -0.4717
     35 C         144.9433  138.6224  155.1151 C.3     1  UNL1        0.2525
     36 C         139.8516  146.5769  156.7832 C.3     1  UNL1        0.1107
     37 N         139.9751  145.3593  157.6506 N.am    1  UNL1       -0.3013
     38 C         141.2765  145.0515  158.3301 C.2     1  UNL1        0.2407
     39 O         142.4543  145.9612  158.1423 O.2     1  UNL1       -0.2733
     40 H         139.2021  144.7622  157.7738 H       1  UNL1        0.1495
@<TRIPOS>BOND
     1    36    37    1
     2    37    38   am
     3    38    39    2
     4     1    38    1
     5     1     2    1
     6     2     3    1
     7     3     8    1
     8     8     9    1
     9     9    10    1
    10    10    11    1
    11    11    12   ar
    12    12    13   ar
    13    13    14   ar
    14    14    15   ar
    15    15    16   ar
    16    16    18    1
    17    18    19    1
    18    19    20    1
    19    20    21    1
    20    21    22    1
    21    22    23    1
    22    12    17    1
    23     3     4    1
    24     4     5    1
    25     5     6   am
    26     6     7    2
    27     6    24    1
    28    24    25   ar
    29    25    26   ar
    30    26    27   ar
    31    27    30    1
    32    30    31    1
    33    27    28   ar
    34    28    34    1
    35    34    35    1
    36    28    29   ar
    37     5     1    1
    38    29    24   ar
    39    17     8    1
    40    16    11   ar
    41    23    21    1
    42    37    40    1
    43    31    32    1
    44    31    33    1
