@<TRIPOS>MOLECULE
*****
 25 27 0 0 0
SMALL
GASTEIGER

@<TRIPOS>ATOM
      1 C         141.6909  141.0478  165.4102 C.ar    1  UNL1        0.0585
      2 C         142.0108  139.9915  164.3944 C.ar    1  UNL1        0.0709
      3 CL        141.5424  140.1467  162.9779 Cl      1  UNL1       -0.0810
      4 C         142.7993  138.7799  164.7951 C.ar    1  UNL1        0.0126
      5 C         143.2678  138.6247  166.2116 C.ar    1  UNL1        0.0009
      6 C         142.9478  139.6811  167.2274 C.ar    1  UNL1        0.0013
      7 C         142.1594  140.8926  166.8267 C.ar    1  UNL1        0.0148
      8 N         141.5207  145.8745  163.4936 N.3     1  UNL1       -0.3208
      9 C         140.8173  144.6727  164.0512 C.3     1  UNL1        0.0709
     10 C         139.3256  144.6824  164.2082 C.3     1  UNL1        0.0190
     11 C         138.6223  143.4806  164.7658 C.3     1  UNL1        0.0228
     12 C         139.4107  142.2691  165.1665 C.3     1  UNL1        0.0909
     13 N         140.9024  142.2594  165.0095 N.pl3   1  UNL1       -0.3055
     14 C         141.6057  143.4612  164.4519 C.3     1  UNL1        0.1062
     15 H         140.8361  146.5990  163.2770 H       1  UNL1        0.1189
     16 H         142.0191  145.6126  162.6431 H       1  UNL1        0.1189
     17 C         141.8394  141.9489  167.8425 C.2     1  UNL1        0.0124
     18 C         140.7512  141.7169  168.8485 C.2     1  UNL1        0.0873
     19 S         139.9023  140.4853  168.9608 S.3     1  UNL1       -0.0254
     20 C         138.9473  140.6830  170.1006 C.2     1  UNL1        0.2832
     21 O         137.9149  139.6995  170.5664 O.2     1  UNL1       -0.2622
     22 N         139.2061  142.0366  170.6927 N.am    1  UNL1       -0.2425
     23 C         140.3209  142.6756  169.9189 C.2     1  UNL1        0.2583
     24 O         140.9033  144.0348  170.1711 O.2     1  UNL1       -0.2692
     25 H         138.7281  142.4357  171.4553 H       1  UNL1        0.1587
@<TRIPOS>BOND
     1     9     8    1
     2     9    10    1
     3    10    11    1
     4    11    12    1
     5    12    13    1
     6    13     1    1
     7     1     2   ar
     8     2     3    1
     9     2     4   ar
    10     4     5   ar
    11     5     6   ar
    12     6     7   ar
    13     7    17    1
    14    17    18    2
    15    18    19    1
    16    19    20    1
    17    20    21    2
    18    20    22   am
    19    22    23   am
    20    23    24    2
    21    13    14    1
    22    14     9    1
    23     7     1   ar
    24    23    18    1
    25     8    15    1
    26     8    16    1
    27    22    25    1
@<TRIPOS>MOLECULE
*****
 25 27 0 0 0
SMALL
GASTEIGER

@<TRIPOS>ATOM
      1 C         141.4854  140.5744  165.4384 C.ar    1  UNL1        0.0585
      2 C         142.4981  140.2831  164.3709 C.ar    1  UNL1        0.0709
      3 CL        142.3665  140.9187  163.0186 Cl      1  UNL1       -0.0810
      4 C         143.6425  139.3560  164.6557 C.ar    1  UNL1        0.0126
      5 C         143.7741  138.7204  166.0080 C.ar    1  UNL1        0.0009
      6 C         142.7613  139.0118  167.0755 C.ar    1  UNL1        0.0013
      7 C         141.6170  139.9388  166.7906 C.ar    1  UNL1        0.0148
      8 N         136.7863  141.4260  163.3905 N.3     1  UNL1       -0.3208
      9 C         137.9915  141.9272  164.1296 C.3     1  UNL1        0.0709
     10 C         138.0524  143.3555  164.5839 C.3     1  UNL1        0.0190
     11 C         139.2575  143.8567  165.3230 C.3     1  UNL1        0.0228
     12 C         140.4019  142.9297  165.6079 C.3     1  UNL1        0.0909
     13 N         140.3410  141.5015  165.1536 N.pl3   1  UNL1       -0.3055
     14 C         139.1358  141.0003  164.4145 C.3     1  UNL1        0.1062
     15 H         136.1121  142.1842  163.2858 H       1  UNL1        0.1189
     16 H         136.3598  140.6617  163.9143 H       1  UNL1        0.1189
     17 C         140.6042  140.2302  167.8581 C.2     1  UNL1        0.0124
     18 C         140.9204  141.2172  168.9425 C.2     1  UNL1        0.0873
     19 S         142.2000  141.9862  169.0892 S.3     1  UNL1       -0.0254
     20 C         142.0828  142.8527  170.3080 C.2     1  UNL1        0.2832
     21 O         143.1333  143.7884  170.8287 O.2     1  UNL1       -0.2622
     22 N         140.7309  142.6194  170.9145 N.am    1  UNL1       -0.2425
     23 C         140.0125  141.6086  170.0706 C.2     1  UNL1        0.2583
     24 O         138.6290  141.0817  170.3123 O.2     1  UNL1       -0.2692
     25 H         140.3772  143.0535  171.7242 H       1  UNL1        0.1587
@<TRIPOS>BOND
     1     9     8    1
     2     9    10    1
     3    10    11    1
     4    11    12    1
     5    12    13    1
     6    13     1    1
     7     1     2   ar
     8     2     3    1
     9     2     4   ar
    10     4     5   ar
    11     5     6   ar
    12     6     7   ar
    13     7    17    1
    14    17    18    2
    15    18    19    1
    16    19    20    1
    17    20    21    2
    18    20    22   am
    19    22    23   am
    20    23    24    2
    21    13    14    1
    22    14     9    1
    23     7     1   ar
    24    23    18    1
    25     8    15    1
    26     8    16    1
    27    22    25    1
@<TRIPOS>MOLECULE
*****
 25 27 0 0 0
SMALL
GASTEIGER

@<TRIPOS>ATOM
      1 C         141.4149  141.0443  165.3809 C.ar    1  UNL1        0.0585
      2 C         141.1844  142.1091  164.3500 C.ar    1  UNL1        0.0709
      3 CL        140.0725  141.9608  163.3541 Cl      1  UNL1       -0.0810
      4 C         142.0658  143.3225  164.3149 C.ar    1  UNL1        0.0126
      5 C         143.1776  143.4708  165.3108 C.ar    1  UNL1        0.0009
      6 C         143.4081  142.4058  166.3417 C.ar    1  UNL1        0.0013
      7 C         142.5267  141.1926  166.3768 C.ar    1  UNL1        0.0148
      8 N         137.3214  138.5109  167.3368 N.3     1  UNL1       -0.3208
      9 C         138.4868  138.5643  166.3939 C.3     1  UNL1        0.0709
     10 C         138.7708  137.4045  165.4861 C.3     1  UNL1        0.0190
     11 C         139.9362  137.4579  164.5432 C.3     1  UNL1        0.0228
     12 C         140.8175  138.6711  164.5081 C.3     1  UNL1        0.0909
     13 N         140.5335  139.8309  165.4159 N.pl3   1  UNL1       -0.3055
     14 C         139.3681  139.7775  166.3588 C.3     1  UNL1        0.1062
     15 H         136.8361  137.6204  167.2275 H       1  UNL1        0.1189
     16 H         136.6796  139.2757  167.1278 H       1  UNL1        0.1189
     17 C         142.7572  140.1276  167.4077 C.2     1  UNL1        0.0124
     18 C         142.2822  140.3316  168.8158 C.2     1  UNL1        0.0873
     19 S         141.5658  141.5416  169.3381 S.3     1  UNL1       -0.0254
     20 C         141.2810  141.3191  170.7940 C.2     1  UNL1        0.2832
     21 O         140.5791  142.2761  171.7113 O.2     1  UNL1       -0.2622
     22 N         141.8214  139.9717  171.1714 N.am    1  UNL1       -0.2425
     23 C         142.4401  139.3614  169.9488 C.2     1  UNL1        0.2583
     24 O         143.1008  138.0169  169.8727 O.2     1  UNL1       -0.2692
     25 H         141.7776  139.5602  172.0647 H       1  UNL1        0.1587
@<TRIPOS>BOND
     1     9     8    1
     2     9    10    1
     3    10    11    1
     4    11    12    1
     5    12    13    1
     6    13     1    1
     7     1     2   ar
     8     2     3    1
     9     2     4   ar
    10     4     5   ar
    11     5     6   ar
    12     6     7   ar
    13     7    17    1
    14    17    18    2
    15    18    19    1
    16    19    20    1
    17    20    21    2
    18    20    22   am
    19    22    23   am
    20    23    24    2
    21    13    14    1
    22    14     9    1
    23     7     1   ar
    24    23    18    1
    25     8    15    1
    26     8    16    1
    27    22    25    1
@<TRIPOS>MOLECULE
*****
 25 27 0 0 0
SMALL
GASTEIGER

@<TRIPOS>ATOM
      1 C         141.4447  140.3940  165.4714 C.ar    1  UNL1        0.0585
      2 C         142.4551  140.0681  164.4118 C.ar    1  UNL1        0.0709
      3 CL        142.2748  140.5907  163.0174 Cl      1  UNL1       -0.0810
      4 C         143.6460  139.2196  164.7466 C.ar    1  UNL1        0.0126
      5 C         143.8263  138.6970  166.1410 C.ar    1  UNL1        0.0009
      6 C         142.8158  139.0229  167.2006 C.ar    1  UNL1        0.0013
      7 C         141.6250  139.8713  166.8658 C.ar    1  UNL1        0.0148
      8 N         139.2248  145.0748  165.0683 N.3     1  UNL1       -0.3208
      9 C         139.1440  143.5829  164.9350 C.3     1  UNL1        0.0709
     10 C         137.8724  142.9395  164.4671 C.3     1  UNL1        0.0190
     11 C         137.7915  141.4476  164.3338 C.3     1  UNL1        0.0228
     12 C         138.9823  140.5991  164.6686 C.3     1  UNL1        0.0909
     13 N         140.2539  141.2425  165.1366 N.pl3   1  UNL1       -0.3055
     14 C         140.3347  142.7344  165.2698 C.3     1  UNL1        0.1062
     15 H         138.3317  145.4888  164.8013 H       1  UNL1        0.1189
     16 H         139.9607  145.4312  164.4584 H       1  UNL1        0.1189
     17 C         140.6145  140.1973  167.9254 C.2     1  UNL1        0.0124
     18 C         140.9409  141.2034  168.9889 C.2     1  UNL1        0.0873
     19 S         142.2293  141.9603  169.1210 S.3     1  UNL1       -0.0254
     20 C         142.1209  142.8540  170.3208 C.2     1  UNL1        0.2832
     21 O         143.1816  143.7882  170.8230 O.2     1  UNL1       -0.2622
     22 N         140.7656  142.6495  170.9303 N.am    1  UNL1       -0.2425
     23 C         140.0364  141.6293  170.1071 C.2     1  UNL1        0.2583
     24 O         138.6466  141.1239  170.3582 O.2     1  UNL1       -0.2692
     25 H         140.4161  143.1048  171.7302 H       1  UNL1        0.1587
@<TRIPOS>BOND
     1     9     8    1
     2     9    10    1
     3    10    11    1
     4    11    12    1
     5    12    13    1
     6    13     1    1
     7     1     2   ar
     8     2     3    1
     9     2     4   ar
    10     4     5   ar
    11     5     6   ar
    12     6     7   ar
    13     7    17    1
    14    17    18    2
    15    18    19    1
    16    19    20    1
    17    20    21    2
    18    20    22   am
    19    22    23   am
    20    23    24    2
    21    13    14    1
    22    14     9    1
    23     7     1   ar
    24    23    18    1
    25     8    15    1
    26     8    16    1
    27    22    25    1
@<TRIPOS>MOLECULE
*****
 25 27 0 0 0
SMALL
GASTEIGER

@<TRIPOS>ATOM
      1 C         140.7778  141.0651  165.3854 C.ar    1  UNL1        0.0585
      2 C         140.4704  140.0352  164.3392 C.ar    1  UNL1        0.0709
      3 CL        141.1229  140.1177  162.9910 Cl      1  UNL1       -0.0810
      4 C         139.5104  138.9228  164.6410 C.ar    1  UNL1        0.0126
      5 C         138.8580  138.8404  165.9892 C.ar    1  UNL1        0.0009
      6 C         139.1654  139.8703  167.0355 C.ar    1  UNL1        0.0013
      7 C         140.1254  140.9827  166.7336 C.ar    1  UNL1        0.0148
      8 N         141.7236  145.7880  163.4360 N.3     1  UNL1       -0.3208
      9 C         142.2106  144.5390  164.1089 C.3     1  UNL1        0.0709
     10 C         143.6575  144.4024  164.4799 C.3     1  UNL1        0.0190
     11 C         144.1446  143.1534  165.1528 C.3     1  UNL1        0.0228
     12 C         143.1847  142.0410  165.4546 C.3     1  UNL1        0.0909
     13 N         141.7378  142.1776  165.0836 N.pl3   1  UNL1       -0.3055
     14 C         141.2508  143.4266  164.4107 C.3     1  UNL1        0.1062
     15 H         142.5041  146.4323  163.3091 H       1  UNL1        0.1189
     16 H         141.0090  146.2294  164.0147 H       1  UNL1        0.1189
     17 C         140.4329  142.0127  167.7799 C.2     1  UNL1        0.0124
     18 C         141.3579  141.6784  168.9124 C.2     1  UNL1        0.0873
     19 S         142.0465  140.3635  169.1296 S.3     1  UNL1       -0.0254
     20 C         142.8709  140.4727  170.3780 C.2     1  UNL1        0.2832
     21 O         143.7245  139.3898  170.9683 O.2     1  UNL1       -0.2622
     22 N         142.6919  141.8550  170.9322 N.am    1  UNL1       -0.2425
     23 C         141.7568  142.6001  170.0265 C.2     1  UNL1        0.2583
     24 O         141.3007  144.0181  170.2037 O.2     1  UNL1       -0.2692
     25 H         143.1140  142.2108  171.7474 H       1  UNL1        0.1587
@<TRIPOS>BOND
     1     9     8    1
     2     9    10    1
     3    10    11    1
     4    11    12    1
     5    12    13    1
     6    13     1    1
     7     1     2   ar
     8     2     3    1
     9     2     4   ar
    10     4     5   ar
    11     5     6   ar
    12     6     7   ar
    13     7    17    1
    14    17    18    2
    15    18    19    1
    16    19    20    1
    17    20    21    2
    18    20    22   am
    19    22    23   am
    20    23    24    2
    21    13    14    1
    22    14     9    1
    23     7     1   ar
    24    23    18    1
    25     8    15    1
    26     8    16    1
    27    22    25    1
@<TRIPOS>MOLECULE
*****
 25 27 0 0 0
SMALL
GASTEIGER

@<TRIPOS>ATOM
      1 C         142.0179  140.9038  165.3036 C.ar    1  UNL1        0.0585
      2 C         143.1692  140.0009  164.9730 C.ar    1  UNL1        0.0709
      3 CL        143.0606  138.5255  165.2207 Cl      1  UNL1       -0.0810
      4 C         144.4293  140.5735  164.3946 C.ar    1  UNL1        0.0126
      5 C         144.5380  142.0490  164.1469 C.ar    1  UNL1        0.0009
      6 C         143.3866  142.9518  164.4776 C.ar    1  UNL1        0.0013
      7 C         142.1266  142.3792  165.0559 C.ar    1  UNL1        0.0148
      8 N         139.0478  139.8150  169.4259 N.3     1  UNL1       -0.3208
      9 C         139.2729  139.7868  167.9432 C.3     1  UNL1        0.0709
     10 C         138.2379  139.1861  167.0388 C.3     1  UNL1        0.0190
     11 C         138.4629  139.1578  165.5561 C.3     1  UNL1        0.0228
     12 C         139.7229  139.7304  164.9777 C.3     1  UNL1        0.0909
     13 N         140.7579  140.3312  165.8820 N.pl3   1  UNL1       -0.3055
     14 C         140.5328  140.3594  167.3648 C.3     1  UNL1        0.1062
     15 H         138.1474  139.3871  169.6414 H       1  UNL1        0.1189
     16 H         139.0517  140.7815  169.7521 H       1  UNL1        0.1189
     17 C         140.9752  143.2820  165.3866 C.2     1  UNL1        0.0124
     18 C         139.9009  143.5305  164.3697 C.2     1  UNL1        0.0873
     19 S         139.8432  142.9492  162.9880 S.3     1  UNL1       -0.0254
     20 C         138.6023  143.4633  162.3203 C.2     1  UNL1        0.2832
     21 O         138.1501  143.1359  160.9281 O.2     1  UNL1       -0.2622
     22 N         137.8930  144.3623  163.2892 N.am    1  UNL1       -0.2425
     23 C         138.6956  144.4038  164.5558 C.2     1  UNL1        0.2583
     24 O         138.3530  145.1820  165.7915 O.2     1  UNL1       -0.2692
     25 H         137.0490  144.8411  163.1231 H       1  UNL1        0.1587
@<TRIPOS>BOND
     1     9     8    1
     2     9    10    1
     3    10    11    1
     4    11    12    1
     5    12    13    1
     6    13     1    1
     7     1     2   ar
     8     2     3    1
     9     2     4   ar
    10     4     5   ar
    11     5     6   ar
    12     6     7   ar
    13     7    17    1
    14    17    18    2
    15    18    19    1
    16    19    20    1
    17    20    21    2
    18    20    22   am
    19    22    23   am
    20    23    24    2
    21    13    14    1
    22    14     9    1
    23     7     1   ar
    24    23    18    1
    25     8    15    1
    26     8    16    1
    27    22    25    1
@<TRIPOS>MOLECULE
*****
 25 27 0 0 0
SMALL
GASTEIGER

@<TRIPOS>ATOM
      1 C         139.2302  139.6855  164.6970 C.ar    1  UNL1        0.0585
      2 C         139.3434  138.3204  164.0858 C.ar    1  UNL1        0.0709
      3 CL        140.1403  137.2534  164.7759 Cl      1  UNL1       -0.0810
      4 C         138.6596  138.0223  162.7844 C.ar    1  UNL1        0.0126
      5 C         137.8626  139.0894  162.0943 C.ar    1  UNL1        0.0009
      6 C         137.7494  140.4545  162.7056 C.ar    1  UNL1        0.0013
      7 C         138.4332  140.7525  164.0070 C.ar    1  UNL1        0.0148
      8 N         139.1306  139.8956  169.8880 N.3     1  UNL1       -0.3208
      9 C         139.8641  140.0886  168.5939 C.3     1  UNL1        0.0709
     10 C         141.2814  140.5797  168.6012 C.3     1  UNL1        0.0190
     11 C         142.0149  140.7728  167.3072 C.3     1  UNL1        0.0228
     12 C         141.3312  140.4747  166.0058 C.3     1  UNL1        0.0909
     13 N         139.9140  139.9836  165.9985 N.pl3   1  UNL1       -0.3055
     14 C         139.1804  139.7905  167.2926 C.3     1  UNL1        0.1062
     15 H         139.7420  140.1439  170.6657 H       1  UNL1        0.1189
     16 H         138.8477  138.9196  169.9762 H       1  UNL1        0.1189
     17 C         138.3200  142.1177  164.6183 C.2     1  UNL1        0.0124
     18 C         139.2749  143.2017  164.2145 C.2     1  UNL1        0.0873
     19 S         140.3879  143.0700  163.2175 S.3     1  UNL1       -0.0254
     20 C         141.0853  144.3948  163.1237 C.2     1  UNL1        0.2832
     21 O         142.2586  144.7131  162.2452 O.2     1  UNL1       -0.2622
     22 N         140.4033  145.3452  164.0627 N.am    1  UNL1       -0.2425
     23 C         139.2844  144.6078  164.7368 C.2     1  UNL1        0.2583
     24 O         138.3408  145.1768  165.7546 O.2     1  UNL1       -0.2692
     25 H         140.6472  146.2874  164.2105 H       1  UNL1        0.1587
@<TRIPOS>BOND
     1     9     8    1
     2     9    10    1
     3    10    11    1
     4    11    12    1
     5    12    13    1
     6    13     1    1
     7     1     2   ar
     8     2     3    1
     9     2     4   ar
    10     4     5   ar
    11     5     6   ar
    12     6     7   ar
    13     7    17    1
    14    17    18    2
    15    18    19    1
    16    19    20    1
    17    20    21    2
    18    20    22   am
    19    22    23   am
    20    23    24    2
    21    13    14    1
    22    14     9    1
    23     7     1   ar
    24    23    18    1
    25     8    15    1
    26     8    16    1
    27    22    25    1
@<TRIPOS>MOLECULE
*****
 25 27 0 0 0
SMALL
GASTEIGER

@<TRIPOS>ATOM
      1 C         141.7015  141.4861  164.6405 C.ar    1  UNL1        0.0585
      2 C         143.0545  141.9877  164.2313 C.ar    1  UNL1        0.0709
      3 CL        143.2064  143.3776  163.6881 Cl      1  UNL1       -0.0810
      4 C         144.2559  141.0994  164.3653 C.ar    1  UNL1        0.0126
      5 C         144.1040  139.7095  164.9086 C.ar    1  UNL1        0.0009
      6 C         142.7508  139.2079  165.3178 C.ar    1  UNL1        0.0013
      7 C         141.5496  140.0961  165.1837 C.ar    1  UNL1        0.0148
      8 N         137.6296  143.1621  161.8817 N.3     1  UNL1       -0.3208
      9 C         138.4642  143.2123  163.1270 C.3     1  UNL1        0.0709
     10 C         138.0976  144.1507  164.2383 C.3     1  UNL1        0.0190
     11 C         138.9323  144.2009  165.4836 C.3     1  UNL1        0.0228
     12 C         140.1335  143.3127  165.6177 C.3     1  UNL1        0.0909
     13 N         140.5001  142.3743  164.5064 N.pl3   1  UNL1       -0.3055
     14 C         139.6655  142.3241  163.2611 C.3     1  UNL1        0.1062
     15 H         136.8600  143.8268  161.9611 H       1  UNL1        0.1189
     16 H         137.2549  142.2210  161.7612 H       1  UNL1        0.1189
     17 C         140.1964  139.5945  165.5929 C.2     1  UNL1        0.0124
     18 C         139.7441  139.7331  167.0164 C.2     1  UNL1        0.0873
     19 S         140.5311  140.3479  168.1357 S.3     1  UNL1       -0.0254
     20 C         139.6988  140.2759  169.3815 C.2     1  UNL1        0.2832
     21 O         140.0978  140.7755  170.7384 O.2     1  UNL1       -0.2622
     22 N         138.3974  139.6167  169.0322 N.am    1  UNL1       -0.2425
     23 C         138.4255  139.2812  167.5705 C.2     1  UNL1        0.2583
     24 O         137.3276  138.6115  166.7984 O.2     1  UNL1       -0.2692
     25 H         137.6553  139.4360  169.6533 H       1  UNL1        0.1587
@<TRIPOS>BOND
     1     9     8    1
     2     9    10    1
     3    10    11    1
     4    11    12    1
     5    12    13    1
     6    13     1    1
     7     1     2   ar
     8     2     3    1
     9     2     4   ar
    10     4     5   ar
    11     5     6   ar
    12     6     7   ar
    13     7    17    1
    14    17    18    2
    15    18    19    1
    16    19    20    1
    17    20    21    2
    18    20    22   am
    19    22    23   am
    20    23    24    2
    21    13    14    1
    22    14     9    1
    23     7     1   ar
    24    23    18    1
    25     8    15    1
    26     8    16    1
    27    22    25    1
@<TRIPOS>MOLECULE
*****
 25 27 0 0 0
SMALL
GASTEIGER

@<TRIPOS>ATOM
      1 C         140.9563  139.9982  164.9765 C.ar    1  UNL1        0.0585
      2 C         141.4402  138.5861  164.8295 C.ar    1  UNL1        0.0709
      3 CL        142.9074  138.3067  164.6898 Cl      1  UNL1       -0.0810
      4 C         140.4570  137.4532  164.8222 C.ar    1  UNL1        0.0126
      5 C         138.9899  137.7325  164.9619 C.ar    1  UNL1        0.0009
      6 C         138.5060  139.1448  165.1089 C.ar    1  UNL1        0.0013
      7 C         139.4892  140.2775  165.1162 C.ar    1  UNL1        0.0148
      8 N         143.6332  143.6498  162.4269 N.3     1  UNL1       -0.3208
      9 C         143.2780  142.9568  163.7090 C.3     1  UNL1        0.0709
     10 C         143.9058  143.3967  164.9982 C.3     1  UNL1        0.0190
     11 C         143.5505  142.7038  166.2803 C.3     1  UNL1        0.0228
     12 C         142.5674  141.5710  166.2730 C.3     1  UNL1        0.0909
     13 N         141.9395  141.1311  164.9838 N.pl3   1  UNL1       -0.3055
     14 C         142.2948  141.8240  163.7017 C.3     1  UNL1        0.1062
     15 H         144.3101  144.3890  162.6162 H       1  UNL1        0.1189
     16 H         142.7927  144.0556  162.0155 H       1  UNL1        0.1189
     17 C         139.0053  141.6898  165.2632 C.2     1  UNL1        0.0124
     18 C         138.5882  142.4696  164.0516 C.2     1  UNL1        0.0873
     19 S         138.6002  141.9729  162.6362 S.3     1  UNL1       -0.0254
     20 C         138.1053  143.0794  161.7525 C.2     1  UNL1        0.2832
     21 O         137.9547  143.0163  160.2615 O.2     1  UNL1       -0.2622
     22 N         137.7873  144.2598  162.6217 N.am    1  UNL1       -0.2425
     23 C         138.0858  143.8829  164.0426 C.2     1  UNL1        0.2583
     24 O         137.9123  144.7646  165.2437 O.2     1  UNL1       -0.2692
     25 H         137.4432  145.1292  162.3137 H       1  UNL1        0.1587
@<TRIPOS>BOND
     1     9     8    1
     2     9    10    1
     3    10    11    1
     4    11    12    1
     5    12    13    1
     6    13     1    1
     7     1     2   ar
     8     2     3    1
     9     2     4   ar
    10     4     5   ar
    11     5     6   ar
    12     6     7   ar
    13     7    17    1
    14    17    18    2
    15    18    19    1
    16    19    20    1
    17    20    21    2
    18    20    22   am
    19    22    23   am
    20    23    24    2
    21    13    14    1
    22    14     9    1
    23     7     1   ar
    24    23    18    1
    25     8    15    1
    26     8    16    1
    27    22    25    1
