@<TRIPOS>MOLECULE
*****
 34 38 0 0 0
SMALL
GASTEIGER

@<TRIPOS>ATOM
      1 C         140.2388  140.6974  170.5067 C.3     1  UNL1        0.0438
      2 C         140.6663  141.2936  169.1983 C.3     1  UNL1        0.1398
      3 C         141.5216  142.0894  170.1391 C.3     1  UNL1        0.0438
      4 O         141.3908  142.1663  168.2167 O.3     1  UNL1       -0.4826
      5 C         141.1116  142.0361  166.7487 C.ar    1  UNL1        0.1361
      6 C         141.8361  142.9087  165.7672 C.ar    1  UNL1        0.0379
      7 C         141.5569  142.7785  164.2992 C.ar    1  UNL1        0.0178
      8 C         140.5531  141.7757  163.8127 C.ar    1  UNL1        0.0505
      9 C         139.8285  140.9030  164.7943 C.ar    1  UNL1        0.0153
     10 C         140.1078  141.0333  166.2623 C.ar    1  UNL1        0.0369
     11 C         139.3832  140.1606  167.2439 C.3     1  UNL1        0.1581
     12 C         139.0011  139.9179  165.8138 C.3     1  UNL1        0.2351
     13 O         137.9670  138.8316  165.7882 O.2     1  UNL1       -0.4478
     14 C         137.7099  138.4030  167.2025 C.2     1  UNL1        0.2770
     15 N         136.7467  137.3397  167.6402 N.pl3   1  UNL1       -0.3133
     16 N         138.5852  139.2243  168.1022 N.2     1  UNL1       -0.2202
     17 C         139.6624  140.2908  168.7119 C.3     1  UNL1        0.1141
     18 C         139.8646  140.5343  168.4380 C.3     1  UNL1        0.1501
     19 O         139.6521  140.2784  168.7259 O.3     1  UNL1       -0.3532
     20 C         139.8646  140.5343  168.4380 C.3     1  UNL1        0.1501
     21 H         136.2134  136.8528  166.9710 H       1  UNL1        0.1466
     22 H         136.6477  137.1287  168.5967 H       1  UNL1        0.1466
     23 N         140.2738  141.6455  162.3447 N.am    1  UNL1       -0.2791
     24 C         139.0210  142.2321  161.7646 C.2     1  UNL1        0.2672
     25 O         138.0475  142.9489  162.6526 O.2     1  UNL1       -0.2682
     26 H         140.9128  141.1750  161.7619 H       1  UNL1        0.1552
     27 C         138.7418  142.1019  160.2966 C.ar    1  UNL1        0.1348
     28 C         138.2408  140.8019  159.7409 C.ar    1  UNL1        0.0245
     29 C         137.9615  140.6716  158.2729 C.ar    1  UNL1        0.0135
     30 C         138.1833  141.8415  157.3606 C.ar    1  UNL1        0.0876
     31 C         138.6843  143.1416  157.9163 C.ar    1  UNL1        0.1092
     32 N         138.9636  143.2718  159.3843 N.ar    1  UNL1       -0.2385
     33 C         137.9040  141.7113  155.8926 C.1     1  UNL1        0.1020
     34 N         137.6248  141.5811  154.4246 N.1     1  UNL1       -0.1908
@<TRIPOS>BOND
     1     1     2    1
     2     2     3    1
     3     2     4    1
     4     4     5    1
     5     5     6   ar
     6     6     7   ar
     7     7     8   ar
     8     8    23    1
     9    23    24   am
    10    24    25    2
    11    24    27    1
    12    27    28   ar
    13    28    29   ar
    14    29    30   ar
    15    30    33    1
    16    33    34    3
    17    30    31   ar
    18    31    32   ar
    19     8     9   ar
    20     9    10   ar
    21    10    11    1
    22    11    12    1
    23    12    13    1
    24    13    14    1
    25    14    15    1
    26    14    16    2
    27    11    17    1
    28    17    18    1
    29    18    19    1
    30    19    20    1
    31    17     2    1
    32    10     5   ar
    33    16    11    1
    34    20    17    1
    35    32    27   ar
    36    23    26    1
    37    15    21    1
    38    15    22    1
@<TRIPOS>MOLECULE
*****
 34 38 0 0 0
SMALL
GASTEIGER

@<TRIPOS>ATOM
      1 C         140.0479  141.1042  170.3067 C.3     1  UNL1        0.0438
      2 C         140.6626  141.3949  168.9696 C.3     1  UNL1        0.1398
      3 C         141.4766  142.3104  169.8351 C.3     1  UNL1        0.0438
      4 O         141.5599  142.0035  167.9331 O.3     1  UNL1       -0.4826
      5 C         141.4298  141.5956  166.4955 C.ar    1  UNL1        0.1361
      6 C         142.3271  142.2043  165.4590 C.ar    1  UNL1        0.0379
      7 C         142.1970  141.7964  164.0214 C.ar    1  UNL1        0.0178
      8 C         141.1695  140.7798  163.6203 C.ar    1  UNL1        0.0505
      9 C         140.2721  140.1712  164.6568 C.ar    1  UNL1        0.0153
     10 C         140.4023  140.5791  166.0944 C.ar    1  UNL1        0.0369
     11 C         139.5050  139.9705  167.1309 C.3     1  UNL1        0.1581
     12 C         139.2593  139.4667  165.7395 C.3     1  UNL1        0.2351
     13 O         138.1452  138.4640  165.7995 O.2     1  UNL1       -0.4478
     14 C         137.7023  138.3481  167.2278 C.2     1  UNL1        0.2770
     15 N         136.6106  137.4576  167.7429 N.pl3   1  UNL1       -0.3133
     16 N         138.5426  139.2792  168.0508 N.2     1  UNL1       -0.2202
     17 C         139.6351  140.3783  168.5685 C.3     1  UNL1        0.1141
     18 C         139.8854  140.5481  168.2793 C.3     1  UNL1        0.1501
     19 O         139.6223  140.3696  168.5833 O.3     1  UNL1       -0.3532
     20 C         139.8854  140.5481  168.2793 C.3     1  UNL1        0.1501
     21 H         136.1128  136.8791  167.1211 H       1  UNL1        0.1466
     22 H         136.3920  137.4517  168.7028 H       1  UNL1        0.1466
     23 N         141.0393  140.3720  162.1827 N.am    1  UNL1       -0.2791
     24 C         141.5825  139.0505  161.7259 C.2     1  UNL1        0.2672
     25 O         142.2559  138.1369  162.7067 O.2     1  UNL1       -0.2682
     26 H         140.5974  140.9716  161.5390 H       1  UNL1        0.1552
     27 C         141.4524  138.6426  160.2883 C.ar    1  UNL1        0.1348
     28 C         142.6498  138.1339  159.5418 C.ar    1  UNL1        0.0245
     29 C         142.5197  137.7260  158.1041 C.ar    1  UNL1        0.0135
     30 C         141.1922  137.8268  157.4131 C.ar    1  UNL1        0.0876
     31 C         139.9947  138.3356  158.1597 C.ar    1  UNL1        0.1092
     32 N         140.1249  138.7434  159.5973 N.ar    1  UNL1       -0.2385
     33 C         141.0620  137.4189  155.9755 C.1     1  UNL1        0.1020
     34 N         140.9319  137.0111  154.5380 N.1     1  UNL1       -0.1908
@<TRIPOS>BOND
     1     1     2    1
     2     2     3    1
     3     2     4    1
     4     4     5    1
     5     5     6   ar
     6     6     7   ar
     7     7     8   ar
     8     8    23    1
     9    23    24   am
    10    24    25    2
    11    24    27    1
    12    27    28   ar
    13    28    29   ar
    14    29    30   ar
    15    30    33    1
    16    33    34    3
    17    30    31   ar
    18    31    32   ar
    19     8     9   ar
    20     9    10   ar
    21    10    11    1
    22    11    12    1
    23    12    13    1
    24    13    14    1
    25    14    15    1
    26    14    16    2
    27    11    17    1
    28    17    18    1
    29    18    19    1
    30    19    20    1
    31    17     2    1
    32    10     5   ar
    33    16    11    1
    34    20    17    1
    35    32    27   ar
    36    23    26    1
    37    15    21    1
    38    15    22    1
@<TRIPOS>MOLECULE
*****
 34 38 0 0 0
SMALL
GASTEIGER

@<TRIPOS>ATOM
      1 C         142.2211  141.7892  167.6001 C.3     1  UNL1        0.0438
      2 C         141.4386  142.6085  166.6168 C.3     1  UNL1        0.1398
      3 C         140.4565  142.5524  167.7492 C.3     1  UNL1        0.0438
      4 O         140.3151  143.4083  166.0269 O.3     1  UNL1       -0.4826
      5 C         140.4454  143.9796  164.6461 C.ar    1  UNL1        0.1361
      6 C         139.3219  144.7793  164.0562 C.ar    1  UNL1        0.0379
      7 C         139.4522  145.3506  162.6754 C.ar    1  UNL1        0.0178
      8 C         140.7061  145.1222  161.8845 C.ar    1  UNL1        0.0505
      9 C         141.8297  144.3224  162.4744 C.ar    1  UNL1        0.0153
     10 C         141.6993  143.7511  163.8553 C.ar    1  UNL1        0.0369
     11 C         142.8229  142.9513  164.4452 C.3     1  UNL1        0.1581
     12 C         143.0960  143.4575  163.0597 C.3     1  UNL1        0.2351
     13 O         144.4658  142.9955  162.6592 O.2     1  UNL1       -0.4478
     14 C         145.0392  142.2040  163.7970 C.2     1  UNL1        0.2770
     15 N         146.3907  141.5539  163.8259 N.pl3   1  UNL1       -0.3133
     16 N         144.0238  142.1766  164.9008 N.2     1  UNL1       -0.2202
     17 C         142.6925  142.3800  165.8259 C.3     1  UNL1        0.1141
     18 C         142.3791  142.6032  165.6614 C.3     1  UNL1        0.1501
     19 O         142.7086  142.3686  165.8344 O.3     1  UNL1       -0.3532
     20 C         142.3791  142.6032  165.6614 C.3     1  UNL1        0.1501
     21 H         146.9895  141.6282  163.0479 H       1  UNL1        0.1466
     22 H         146.6790  141.0528  164.6228 H       1  UNL1        0.1466
     23 N         140.8365  145.6935  160.5037 N.am    1  UNL1       -0.2791
     24 C         140.1580  145.0216  159.3469 C.2     1  UNL1        0.2672
     25 O         139.3491  143.7783  159.5709 O.2     1  UNL1       -0.2682
     26 H         141.3673  146.5095  160.3567 H       1  UNL1        0.1552
     27 C         140.2883  145.5929  157.9661 C.ar    1  UNL1        0.1348
     28 C         141.3100  145.0381  157.0183 C.ar    1  UNL1        0.0245
     29 C         141.4404  145.6094  155.6375 C.ar    1  UNL1        0.0135
     30 C         140.5490  146.7355  155.2045 C.ar    1  UNL1        0.0876
     31 C         139.5273  147.2902  156.1523 C.ar    1  UNL1        0.1092
     32 N         139.3969  146.7189  157.5331 N.ar    1  UNL1       -0.2385
     33 C         140.6793  147.3068  153.8237 C.1     1  UNL1        0.1020
     34 N         140.8097  147.8781  152.4429 N.1     1  UNL1       -0.1908
@<TRIPOS>BOND
     1     1     2    1
     2     2     3    1
     3     2     4    1
     4     4     5    1
     5     5     6   ar
     6     6     7   ar
     7     7     8   ar
     8     8    23    1
     9    23    24   am
    10    24    25    2
    11    24    27    1
    12    27    28   ar
    13    28    29   ar
    14    29    30   ar
    15    30    33    1
    16    33    34    3
    17    30    31   ar
    18    31    32   ar
    19     8     9   ar
    20     9    10   ar
    21    10    11    1
    22    11    12    1
    23    12    13    1
    24    13    14    1
    25    14    15    1
    26    14    16    2
    27    11    17    1
    28    17    18    1
    29    18    19    1
    30    19    20    1
    31    17     2    1
    32    10     5   ar
    33    16    11    1
    34    20    17    1
    35    32    27   ar
    36    23    26    1
    37    15    21    1
    38    15    22    1
@<TRIPOS>MOLECULE
*****
 34 38 0 0 0
SMALL
GASTEIGER

@<TRIPOS>ATOM
      1 C         141.5602  140.0413  170.4923 C.3     1  UNL1        0.0438
      2 C         142.1048  140.7544  169.2901 C.3     1  UNL1        0.1398
      3 C         143.1485  141.1184  170.3040 C.3     1  UNL1        0.0438
      4 O         143.0118  141.5940  168.4402 O.3     1  UNL1       -0.4826
      5 C         142.6860  141.8218  166.9939 C.ar    1  UNL1        0.1361
      6 C         143.5930  142.6614  166.1440 C.ar    1  UNL1        0.0379
      7 C         143.2672  142.8893  164.6977 C.ar    1  UNL1        0.0178
      8 C         142.0342  142.2775  164.1012 C.ar    1  UNL1        0.0505
      9 C         141.1271  141.4380  164.9511 C.ar    1  UNL1        0.0153
     10 C         141.4530  141.2101  166.3975 C.ar    1  UNL1        0.0369
     11 C         140.5460  140.3706  167.2475 C.3     1  UNL1        0.1581
     12 C         140.0927  140.5096  165.8243 C.3     1  UNL1        0.2351
     13 O         138.8164  139.7374  165.6668 O.2     1  UNL1       -0.4478
     14 C         138.4808  139.1211  166.9925 C.2     1  UNL1        0.2770
     15 N         137.2862  138.2640  167.2893 N.pl3   1  UNL1       -0.3133
     16 N         139.5498  139.5125  167.9695 N.2     1  UNL1       -0.2202
     17 C         140.8718  140.1427  168.6938 C.3     1  UNL1        0.1141
     18 C         141.1249  140.3770  168.4566 C.3     1  UNL1        0.1501
     19 O         140.8589  140.1308  168.7059 O.3     1  UNL1       -0.3532
     20 C         141.1249  140.3770  168.4566 C.3     1  UNL1        0.1501
     21 H         136.6365  138.0617  166.5778 H       1  UNL1        0.1466
     22 H         137.1517  137.9037  168.1956 H       1  UNL1        0.1466
     23 N         141.7083  142.5054  162.6549 N.am    1  UNL1       -0.2791
     24 C         141.1527  143.8259  162.2103 C.2     1  UNL1        0.2672
     25 O         140.9229  144.9185  163.2120 O.2     1  UNL1       -0.2682
     26 H         141.8591  141.7883  161.9974 H       1  UNL1        0.1552
     27 C         140.8268  144.0537  160.7640 C.ar    1  UNL1        0.1348
     28 C         139.7408  143.2560  160.1052 C.ar    1  UNL1        0.0245
     29 C         139.4149  143.4838  158.6588 C.ar    1  UNL1        0.0135
     30 C         140.1751  144.5094  157.8713 C.ar    1  UNL1        0.0876
     31 C         141.2612  145.3072  158.5301 C.ar    1  UNL1        0.1092
     32 N         141.5870  145.0794  159.9764 N.ar    1  UNL1       -0.2385
     33 C         139.8492  144.7373  156.4250 C.1     1  UNL1        0.1020
     34 N         139.5234  144.9651  154.9786 N.1     1  UNL1       -0.1908
@<TRIPOS>BOND
     1     1     2    1
     2     2     3    1
     3     2     4    1
     4     4     5    1
     5     5     6   ar
     6     6     7   ar
     7     7     8   ar
     8     8    23    1
     9    23    24   am
    10    24    25    2
    11    24    27    1
    12    27    28   ar
    13    28    29   ar
    14    29    30   ar
    15    30    33    1
    16    33    34    3
    17    30    31   ar
    18    31    32   ar
    19     8     9   ar
    20     9    10   ar
    21    10    11    1
    22    11    12    1
    23    12    13    1
    24    13    14    1
    25    14    15    1
    26    14    16    2
    27    11    17    1
    28    17    18    1
    29    18    19    1
    30    19    20    1
    31    17     2    1
    32    10     5   ar
    33    16    11    1
    34    20    17    1
    35    32    27   ar
    36    23    26    1
    37    15    21    1
    38    15    22    1
@<TRIPOS>MOLECULE
*****
 34 38 0 0 0
SMALL
GASTEIGER

@<TRIPOS>ATOM
      1 C         141.3969  137.4060  156.1825 C.3     1  UNL1        0.0438
      2 C         142.0660  137.5157  157.5206 C.3     1  UNL1        0.1398
      3 C         143.0787  136.6844  156.7902 C.3     1  UNL1        0.0438
      4 O         143.0868  137.3366  158.6050 O.3     1  UNL1       -0.4826
      5 C         142.8625  137.9507  159.9549 C.ar    1  UNL1        0.1361
      6 C         143.8834  137.7717  161.0393 C.ar    1  UNL1        0.0379
      7 C         143.6591  138.3858  162.3893 C.ar    1  UNL1        0.0178
      8 C         142.4140  139.1791  162.6550 C.ar    1  UNL1        0.0505
      9 C         141.3931  139.3581  161.5706 C.ar    1  UNL1        0.0153
     10 C         141.6175  138.7439  160.2206 C.ar    1  UNL1        0.0369
     11 C         140.5966  138.9230  159.1362 C.3     1  UNL1        0.1581
     12 C         140.2368  139.5925  160.4294 C.3     1  UNL1        0.2351
     13 O         138.9105  140.2692  160.2477 O.2     1  UNL1       -0.4478
     14 C         138.4506  140.0180  158.8422 C.2     1  UNL1        0.2770
     15 N         137.1730  140.5121  158.2310 N.pl3   1  UNL1       -0.3133
     16 N         139.4927  139.1860  158.1552 N.2     1  UNL1       -0.2202
     17 C         140.8209  138.3088  157.7862 C.3     1  UNL1        0.1141
     18 C         141.1057  138.2589  158.0887 C.3     1  UNL1        0.1501
     19 O         140.8063  138.3114  157.7707 O.3     1  UNL1       -0.3532
     20 C         141.1057  138.2589  158.0887 C.3     1  UNL1        0.1501
     21 H         136.5492  141.0547  158.7655 H       1  UNL1        0.1466
     22 H         136.9582  140.2937  157.2954 H       1  UNL1        0.1466
     23 N         142.1897  139.7932  164.0050 N.am    1  UNL1       -0.2791
     24 C         141.6412  138.9608  165.1259 C.2     1  UNL1        0.2672
     25 O         141.3169  137.5143  164.8967 O.2     1  UNL1       -0.2682
     26 H         142.4025  140.7426  164.1553 H       1  UNL1        0.1552
     27 C         141.4169  139.5749  166.4758 C.ar    1  UNL1        0.1348
     28 C         140.0220  139.8617  166.9469 C.ar    1  UNL1        0.0245
     29 C         139.7977  140.4759  168.2970 C.ar    1  UNL1        0.0135
     30 C         140.9683  140.8032  169.1759 C.ar    1  UNL1        0.0876
     31 C         142.3633  140.5164  168.7047 C.ar    1  UNL1        0.1092
     32 N         142.5875  139.9023  167.3547 N.ar    1  UNL1       -0.2385
     33 C         140.7441  141.4174  170.5259 C.1     1  UNL1        0.1020
     34 N         140.5198  142.0315  171.8758 N.1     1  UNL1       -0.1908
@<TRIPOS>BOND
     1     1     2    1
     2     2     3    1
     3     2     4    1
     4     4     5    1
     5     5     6   ar
     6     6     7   ar
     7     7     8   ar
     8     8    23    1
     9    23    24   am
    10    24    25    2
    11    24    27    1
    12    27    28   ar
    13    28    29   ar
    14    29    30   ar
    15    30    33    1
    16    33    34    3
    17    30    31   ar
    18    31    32   ar
    19     8     9   ar
    20     9    10   ar
    21    10    11    1
    22    11    12    1
    23    12    13    1
    24    13    14    1
    25    14    15    1
    26    14    16    2
    27    11    17    1
    28    17    18    1
    29    18    19    1
    30    19    20    1
    31    17     2    1
    32    10     5   ar
    33    16    11    1
    34    20    17    1
    35    32    27   ar
    36    23    26    1
    37    15    21    1
    38    15    22    1
@<TRIPOS>MOLECULE
*****
 34 38 0 0 0
SMALL
GASTEIGER

@<TRIPOS>ATOM
      1 C         140.0385  141.5192  169.9142 C.3     1  UNL1        0.0438
      2 C         139.6228  140.5710  168.8287 C.3     1  UNL1        0.1398
      3 C         138.5865  140.2513  169.8650 C.3     1  UNL1        0.0438
      4 O         138.8471  139.5117  168.1032 O.3     1  UNL1       -0.4826
      5 C         139.2521  139.1016  166.7185 C.ar    1  UNL1        0.1361
      6 C         138.4764  138.0423  165.9930 C.ar    1  UNL1        0.0379
      7 C         138.8814  137.6321  164.6082 C.ar    1  UNL1        0.0178
      8 C         140.0621  138.2812  163.9488 C.ar    1  UNL1        0.0505
      9 C         140.8377  139.3405  164.6743 C.ar    1  UNL1        0.0153
     10 C         140.4327  139.7506  166.0591 C.ar    1  UNL1        0.0369
     11 C         141.2084  140.8099  166.7846 C.3     1  UNL1        0.1581
     12 C         141.7293  140.5051  165.4113 C.3     1  UNL1        0.2351
     13 O         142.9183  141.3846  165.1608 O.2     1  UNL1       -0.4478
     14 C         143.1323  142.2330  166.3791 C.2     1  UNL1        0.2770
     15 N         144.2132  143.2567  166.5619 N.pl3   1  UNL1       -0.3133
     16 N         142.0755  141.8778  167.3828 N.2     1  UNL1       -0.2202
     17 C         140.8034  141.2201  168.1694 C.3     1  UNL1        0.1141
     18 C         140.5870  140.9246  167.9670 C.3     1  UNL1        0.1501
     19 O         140.8145  141.2352  168.1798 O.3     1  UNL1       -0.3532
     20 C         140.5870  140.9246  167.9670 C.3     1  UNL1        0.1501
     21 H         144.8640  143.4194  165.8413 H       1  UNL1        0.1466
     22 H         144.2719  143.7660  167.4024 H       1  UNL1        0.1466
     23 N         140.4670  137.8710  162.5640 N.am    1  UNL1       -0.2791
     24 C         140.3698  138.8514  161.4328 C.2     1  UNL1        0.2672
     25 O         139.8677  140.2419  161.6864 O.2     1  UNL1       -0.2682
     26 H         140.7966  136.9584  162.3975 H       1  UNL1        0.1552
     27 C         140.7748  138.4412  160.0480 C.ar    1  UNL1        0.1348
     28 C         139.7582  138.4174  158.9454 C.ar    1  UNL1        0.0245
     29 C         140.1631  138.0072  157.5605 C.ar    1  UNL1        0.0135
     30 C         141.5847  137.6208  157.2783 C.ar    1  UNL1        0.0876
     31 C         142.6014  137.6446  158.3810 C.ar    1  UNL1        0.1092
     32 N         142.1965  138.0548  159.7658 N.ar    1  UNL1       -0.2385
     33 C         141.9897  137.2106  155.8935 C.1     1  UNL1        0.1020
     34 N         142.3947  136.8004  154.5087 N.1     1  UNL1       -0.1908
@<TRIPOS>BOND
     1     1     2    1
     2     2     3    1
     3     2     4    1
     4     4     5    1
     5     5     6   ar
     6     6     7   ar
     7     7     8   ar
     8     8    23    1
     9    23    24   am
    10    24    25    2
    11    24    27    1
    12    27    28   ar
    13    28    29   ar
    14    29    30   ar
    15    30    33    1
    16    33    34    3
    17    30    31   ar
    18    31    32   ar
    19     8     9   ar
    20     9    10   ar
    21    10    11    1
    22    11    12    1
    23    12    13    1
    24    13    14    1
    25    14    15    1
    26    14    16    2
    27    11    17    1
    28    17    18    1
    29    18    19    1
    30    19    20    1
    31    17     2    1
    32    10     5   ar
    33    16    11    1
    34    20    17    1
    35    32    27   ar
    36    23    26    1
    37    15    21    1
    38    15    22    1
@<TRIPOS>MOLECULE
*****
 34 38 0 0 0
SMALL
GASTEIGER

@<TRIPOS>ATOM
      1 C         144.7254  130.4222  157.5265 C.3     1  UNL1        0.0438
      2 C         144.3664  131.8657  157.3321 C.3     1  UNL1        0.1398
      3 C         145.6017  132.0150  158.1697 C.3     1  UNL1        0.0438
      4 O         144.4364  133.3609  157.4286 O.3     1  UNL1       -0.4826
      5 C         143.3959  134.2056  156.7550 C.ar    1  UNL1        0.1361
      6 C         143.4659  135.7008  156.8516 C.ar    1  UNL1        0.0379
      7 C         142.4254  136.5454  156.1780 C.ar    1  UNL1        0.0178
      8 C         141.3147  135.8948  155.4078 C.ar    1  UNL1        0.0505
      9 C         141.2446  134.3996  155.3112 C.ar    1  UNL1        0.0153
     10 C         142.2852  133.5549  155.9849 C.ar    1  UNL1        0.0369
     11 C         142.2152  132.0597  155.8883 C.3     1  UNL1        0.1581
     12 C         141.1090  132.7702  155.1661 C.3     1  UNL1        0.2351
     13 O         140.2258  131.7339  154.5366 O.2     1  UNL1       -0.4478
     14 C         140.7862  130.3830  154.8697 C.2     1  UNL1        0.2770
     15 N         140.2170  129.0626  154.4425 N.pl3   1  UNL1       -0.3133
     16 N         142.0157  130.5843  155.7052 N.2     1  UNL1       -0.2202
     17 C         143.2558  131.2151  156.5619 C.3     1  UNL1        0.1141
     18 C         143.2753  131.6322  156.5889 C.3     1  UNL1        0.1501
     19 O         143.2548  131.1937  156.5606 O.3     1  UNL1       -0.3532
     20 C         143.2753  131.6322  156.5889 C.3     1  UNL1        0.1501
     21 H         139.4015  129.0331  153.8918 H       1  UNL1        0.1466
     22 H         140.6590  128.2254  154.7128 H       1  UNL1        0.1466
     23 N         140.2741  136.7395  154.7342 N.am    1  UNL1       -0.2791
     24 C         139.2718  137.4931  155.5573 C.2     1  UNL1        0.2672
     25 O         139.3101  137.4020  157.0541 O.2     1  UNL1       -0.2682
     26 H         140.2489  136.7992  153.7518 H       1  UNL1        0.1552
     27 C         138.2312  138.3377  154.8837 C.ar    1  UNL1        0.1348
     28 C         137.6630  137.9150  153.5615 C.ar    1  UNL1        0.0245
     29 C         136.6224  138.7597  152.8878 C.ar    1  UNL1        0.0135
     30 C         136.1500  140.0270  153.5365 C.ar    1  UNL1        0.0876
     31 C         136.7183  140.4496  154.8588 C.ar    1  UNL1        0.1092
     32 N         137.7588  139.6050  155.5324 N.ar    1  UNL1       -0.2385
     33 C         135.1095  140.8716  152.8629 C.1     1  UNL1        0.1020
     34 N         134.0689  141.7162  152.1893 N.1     1  UNL1       -0.1908
@<TRIPOS>BOND
     1     1     2    1
     2     2     3    1
     3     2     4    1
     4     4     5    1
     5     5     6   ar
     6     6     7   ar
     7     7     8   ar
     8     8    23    1
     9    23    24   am
    10    24    25    2
    11    24    27    1
    12    27    28   ar
    13    28    29   ar
    14    29    30   ar
    15    30    33    1
    16    33    34    3
    17    30    31   ar
    18    31    32   ar
    19     8     9   ar
    20     9    10   ar
    21    10    11    1
    22    11    12    1
    23    12    13    1
    24    13    14    1
    25    14    15    1
    26    14    16    2
    27    11    17    1
    28    17    18    1
    29    18    19    1
    30    19    20    1
    31    17     2    1
    32    10     5   ar
    33    16    11    1
    34    20    17    1
    35    32    27   ar
    36    23    26    1
    37    15    21    1
    38    15    22    1
@<TRIPOS>MOLECULE
*****
 34 38 0 0 0
SMALL
GASTEIGER

@<TRIPOS>ATOM
      1 C         137.7356  143.1303  164.6805 C.3     1  UNL1        0.0438
      2 C         137.9508  142.9069  163.2129 C.3     1  UNL1        0.1398
      3 C         137.7022  144.3861  163.2176 C.3     1  UNL1        0.0438
      4 O         138.0797  143.1973  161.7469 O.3     1  UNL1       -0.4826
      5 C         138.3824  142.0861  160.7860 C.ar    1  UNL1        0.1361
      6 C         138.5112  142.3765  159.3200 C.ar    1  UNL1        0.0379
      7 C         138.8140  141.2653  158.3590 C.ar    1  UNL1        0.0178
      8 C         138.9879  139.8636  158.8640 C.ar    1  UNL1        0.0505
      9 C         138.8590  139.5731  160.3300 C.ar    1  UNL1        0.0153
     10 C         138.5563  140.6845  161.2910 C.ar    1  UNL1        0.0369
     11 C         138.4274  140.3940  162.7569 C.3     1  UNL1        0.1581
     12 C         138.7312  139.1867  161.9202 C.3     1  UNL1        0.2351
     13 O         138.8196  138.0000  162.8335 O.2     1  UNL1       -0.4478
     14 C         138.5704  138.4739  164.2347 C.2     1  UNL1        0.2770
     15 N         138.5647  137.6185  165.4668 N.pl3   1  UNL1       -0.3133
     16 N         138.3281  139.9535  164.1874 N.2     1  UNL1       -0.2202
     17 C         138.1247  141.5052  163.7179 C.3     1  UNL1        0.1141
     18 C         138.1607  141.5863  163.3089 C.3     1  UNL1        0.1501
     19 O         138.1229  141.5011  163.7388 O.3     1  UNL1       -0.3532
     20 C         138.1607  141.5863  163.3089 C.3     1  UNL1        0.1501
     21 H         138.7354  136.6515  165.3955 H       1  UNL1        0.1466
     22 H         138.3901  138.0240  166.3468 H       1  UNL1        0.1466
     23 N         139.2906  138.7523  157.9031 N.am    1  UNL1       -0.2791
     24 C         140.7095  138.3207  157.6785 C.2     1  UNL1        0.2672
     25 O         141.8257  139.0003  158.4149 O.2     1  UNL1       -0.2682
     26 H         138.5580  138.3063  157.4197 H       1  UNL1        0.1552
     27 C         141.0122  137.2095  156.7175 C.ar    1  UNL1        0.1348
     28 C         140.0550  136.8980  155.6055 C.ar    1  UNL1        0.0245
     29 C         140.3577  135.7867  154.6445 C.ar    1  UNL1        0.0135
     30 C         141.6177  134.9870  154.7955 C.ar    1  UNL1        0.0876
     31 C         142.5750  135.2985  155.9076 C.ar    1  UNL1        0.1092
     32 N         142.2722  136.4097  156.8686 N.ar    1  UNL1       -0.2385
     33 C         141.9204  133.8757  153.8346 C.1     1  UNL1        0.1020
     34 N         142.2231  132.7645  152.8736 N.1     1  UNL1       -0.1908
@<TRIPOS>BOND
     1     1     2    1
     2     2     3    1
     3     2     4    1
     4     4     5    1
     5     5     6   ar
     6     6     7   ar
     7     7     8   ar
     8     8    23    1
     9    23    24   am
    10    24    25    2
    11    24    27    1
    12    27    28   ar
    13    28    29   ar
    14    29    30   ar
    15    30    33    1
    16    33    34    3
    17    30    31   ar
    18    31    32   ar
    19     8     9   ar
    20     9    10   ar
    21    10    11    1
    22    11    12    1
    23    12    13    1
    24    13    14    1
    25    14    15    1
    26    14    16    2
    27    11    17    1
    28    17    18    1
    29    18    19    1
    30    19    20    1
    31    17     2    1
    32    10     5   ar
    33    16    11    1
    34    20    17    1
    35    32    27   ar
    36    23    26    1
    37    15    21    1
    38    15    22    1
@<TRIPOS>MOLECULE
*****
 34 38 0 0 0
SMALL
GASTEIGER

@<TRIPOS>ATOM
      1 C         142.1226  140.6658  168.4403 C.3     1  UNL1        0.0438
      2 C         142.6270  141.6293  167.4072 C.3     1  UNL1        0.1398
      3 C         143.3751  142.1220  168.6103 C.3     1  UNL1        0.0438
      4 O         143.3912  142.7640  166.7920 O.3     1  UNL1       -0.4826
      5 C         143.2321  143.0713  165.3325 C.ar    1  UNL1        0.1361
      6 C         143.9964  144.2060  164.7172 C.ar    1  UNL1        0.0379
      7 C         143.8372  144.5133  163.2577 C.ar    1  UNL1        0.0178
      8 C         142.9138  143.6859  162.4134 C.ar    1  UNL1        0.0505
      9 C         142.1496  142.5513  163.0286 C.ar    1  UNL1        0.0153
     10 C         142.3087  142.2440  164.4882 C.ar    1  UNL1        0.0369
     11 C         141.5445  141.1093  165.1034 C.3     1  UNL1        0.1581
     12 C         141.2844  141.2965  163.6379 C.3     1  UNL1        0.2351
     13 O         140.2982  140.2523  163.2051 O.2     1  UNL1       -0.4478
     14 C         139.9488  139.4198  164.4030 C.2     1  UNL1        0.2770
     15 N         138.9965  138.2612  164.4240 N.pl3   1  UNL1       -0.3133
     16 N         140.7191  139.9495  165.5762 N.2     1  UNL1       -0.2202
     17 C         141.7036  140.8020  166.5629 C.3     1  UNL1        0.1141
     18 C         141.9168  141.1186  166.3912 C.3     1  UNL1        0.1501
     19 O         141.6927  140.7858  166.5717 O.3     1  UNL1       -0.3532
     20 C         141.9168  141.1186  166.3912 C.3     1  UNL1        0.1501
     21 H         138.5361  137.9874  163.5979 H       1  UNL1        0.1466
     22 H         138.8318  137.7745  165.2638 H       1  UNL1        0.1466
     23 N         142.7547  143.9932  160.9539 N.am    1  UNL1       -0.2791
     24 C         141.5415  144.7312  160.4707 C.2     1  UNL1        0.2672
     25 O         140.4873  145.1619  161.4471 O.2     1  UNL1       -0.2682
     26 H         143.4466  143.7106  160.3130 H       1  UNL1        0.1552
     27 C         141.3823  145.0385  159.0112 C.ar    1  UNL1        0.1348
     28 C         142.3609  144.4864  158.0175 C.ar    1  UNL1        0.0245
     29 C         142.2018  144.7937  156.5579 C.ar    1  UNL1        0.0135
     30 C         141.0642  145.6532  156.0921 C.ar    1  UNL1        0.0876
     31 C         140.0856  146.2053  157.0859 C.ar    1  UNL1        0.1092
     32 N         140.2447  145.8980  158.5454 N.ar    1  UNL1       -0.2385
     33 C         140.9051  145.9605  154.6326 C.1     1  UNL1        0.1020
     34 N         140.7459  146.2678  153.1731 N.1     1  UNL1       -0.1908
@<TRIPOS>BOND
     1     1     2    1
     2     2     3    1
     3     2     4    1
     4     4     5    1
     5     5     6   ar
     6     6     7   ar
     7     7     8   ar
     8     8    23    1
     9    23    24   am
    10    24    25    2
    11    24    27    1
    12    27    28   ar
    13    28    29   ar
    14    29    30   ar
    15    30    33    1
    16    33    34    3
    17    30    31   ar
    18    31    32   ar
    19     8     9   ar
    20     9    10   ar
    21    10    11    1
    22    11    12    1
    23    12    13    1
    24    13    14    1
    25    14    15    1
    26    14    16    2
    27    11    17    1
    28    17    18    1
    29    18    19    1
    30    19    20    1
    31    17     2    1
    32    10     5   ar
    33    16    11    1
    34    20    17    1
    35    32    27   ar
    36    23    26    1
    37    15    21    1
    38    15    22    1
