@<TRIPOS>MOLECULE
*****
 43 47 0 0 0
SMALL
GASTEIGER

@<TRIPOS>ATOM
      1 C         139.8289  143.5857  161.5935 C.3     1  UNL1        0.0758
      2 C         140.8160  144.5824  161.0623 C.3     1  UNL1        0.0370
      3 C         141.0278  144.7131  159.5832 C.3     1  UNL1        0.0741
      4 N         140.2525  143.8469  158.6351 N.3     1  UNL1       -0.2688
      5 C         139.2654  142.8502  159.1663 C.3     1  UNL1        0.0741
      6 C         139.0536  142.7196  160.6454 C.3     1  UNL1        0.0370
      7 N         139.9068  142.1109  165.2772 N.am    1  UNL1       -0.2848
      8 C         140.1186  142.2416  163.7979 C.2     1  UNL1        0.3010
      9 O         140.8320  141.1587  163.0439 O.2     1  UNL1       -0.2528
     10 N         139.6171  143.4550  163.0727 N.am    1  UNL1       -0.2905
     11 H         139.4386  142.8216  165.7721 H       1  UNL1        0.1513
     12 H         139.1489  144.1658  163.5676 H       1  UNL1        0.1509
     13 C         140.4083  140.8974  166.0023 C.3     1  UNL1        0.1199
     14 C         139.5348  139.6846  166.1281 C.ar    1  UNL1       -0.0025
     15 C         139.6965  138.5413  165.1707 C.ar    1  UNL1       -0.0026
     16 C         138.8229  137.3284  165.2965 C.ar    1  UNL1       -0.0003
     17 C         137.7877  137.2588  166.3798 C.ar    1  UNL1       -0.0000
     18 C         137.6260  138.4021  167.3372 C.ar    1  UNL1       -0.0003
     19 C         138.4995  139.6150  167.2114 C.ar    1  UNL1       -0.0026
     20 C         141.7834  140.8968  166.6017 C.3     1  UNL1        0.1510
     21 C         145.8002  141.7633  163.2859 C.3     1  UNL1        0.0540
     22 C         144.8291  141.0804  164.2028 C.ar    1  UNL1        0.0801
     23 C         144.8278  139.6232  164.5586 C.ar    1  UNL1        0.0308
     24 C         143.6867  139.3771  165.5005 C.ar    1  UNL1        0.0572
     25 C         143.3148  138.0575  166.1092 C.3     1  UNL1        0.0517
     26 N         142.9827  140.6822  165.7269 N.ar    1  UNL1       -0.2532
     27 N         143.6888  141.7349  164.9249 N.ar    1  UNL1       -0.1739
     28 C         140.4643  143.9776  157.1559 C.3     1  UNL1        0.1007
     29 C         139.7384  145.0402  156.3852 C.ar    1  UNL1        0.0129
     30 C         138.5160  144.8367  155.5401 C.ar    1  UNL1        0.0176
     31 C         138.1295  146.1635  154.9570 C.ar    1  UNL1        0.0799
     32 N         139.1131  147.1871  155.4417 N.ar    1  UNL1       -0.3038
     33 C         140.1074  146.4928  156.3244 C.ar    1  UNL1        0.0772
     34 C         139.1039  148.6484  155.1031 C.ar    1  UNL1        0.0640
     35 C         139.7090  149.1237  153.8155 C.ar    1  UNL1        0.0175
     36 C         139.6998  150.5850  153.4770 C.ar    1  UNL1        0.0053
     37 C         139.0856  151.5709  154.4259 C.ar    1  UNL1        0.0715
     38 C         138.4805  151.0956  155.7135 C.ar    1  UNL1        0.0053
     39 C         138.4897  149.6343  156.0521 C.ar    1  UNL1        0.0175
     40 C         139.0764  153.0321  154.0873 C.3     1  UNL1        0.4186
     41 F         139.0672  154.4934  153.7488 F       1  UNL1       -0.1659
     42 F         140.0240  152.7753  152.9532 F       1  UNL1       -0.1659
     43 F         138.1289  153.2890  155.2215 F       1  UNL1       -0.1659
@<TRIPOS>BOND
     1    21    22    1
     2    22    23   ar
     3    23    24   ar
     4    24    25    1
     5    24    26   ar
     6    26    20    1
     7    20    13    1
     8    13     7    1
     9     7     8   am
    10     8     9    2
    11     8    10   am
    12    10     1    1
    13     1     2    1
    14     2     3    1
    15     3     4    1
    16     4    28    1
    17    28    29    1
    18    29    30   ar
    19    30    31   ar
    20    31    32   ar
    21    32    34    1
    22    34    35   ar
    23    35    36   ar
    24    36    37   ar
    25    37    40    1
    26    40    41    1
    27    40    42    1
    28    40    43    1
    29    37    38   ar
    30    38    39   ar
    31    32    33   ar
    32     4     5    1
    33     5     6    1
    34    13    14    1
    35    14    15   ar
    36    15    16   ar
    37    16    17   ar
    38    17    18   ar
    39    18    19   ar
    40    26    27   ar
    41    27    22   ar
    42     6     1    1
    43    19    14   ar
    44    33    29   ar
    45    39    34   ar
    46     7    11    1
    47    10    12    1
@<TRIPOS>MOLECULE
*****
 43 47 0 0 0
SMALL
GASTEIGER

@<TRIPOS>ATOM
      1 C         139.4225  139.4801  159.0565 C.3     1  UNL1        0.0758
      2 C         138.1788  140.3183  159.0361 C.3     1  UNL1        0.0370
      3 C         138.0187  141.3977  158.0069 C.3     1  UNL1        0.0741
      4 N         139.1023  141.6390  156.9982 N.3     1  UNL1       -0.2688
      5 C         140.3461  140.8008  157.0187 C.3     1  UNL1        0.0741
      6 C         140.5062  139.7213  158.0478 C.3     1  UNL1        0.0370
      7 N         140.3145  137.6485  162.4624 N.am    1  UNL1       -0.2848
      8 C         140.1544  138.7280  161.4332 C.2     1  UNL1        0.3010
      9 O         140.5660  140.1348  161.7517 O.2     1  UNL1       -0.2528
     10 N         139.5826  138.4006  160.0857 N.am    1  UNL1       -0.2905
     11 H         140.0443  136.7252  162.2535 H       1  UNL1        0.1513
     12 H         139.3125  137.4773  159.8767 H       1  UNL1        0.1509
     13 C         140.8863  137.9759  163.8100 C.3     1  UNL1        0.1199
     14 C         139.9744  138.3494  164.9409 C.ar    1  UNL1       -0.0025
     15 C         140.2306  139.5996  165.7293 C.ar    1  UNL1       -0.0026
     16 C         139.3187  139.9731  166.8602 C.ar    1  UNL1       -0.0003
     17 C         138.1507  139.0965  167.2027 C.ar    1  UNL1       -0.0000
     18 C         137.8945  137.8464  166.4144 C.ar    1  UNL1       -0.0003
     19 C         138.8064  137.4729  165.2834 C.ar    1  UNL1       -0.0026
     20 C         142.3698  137.9297  164.0266 C.3     1  UNL1        0.1510
     21 C         144.9836  142.5175  164.0492 C.3     1  UNL1        0.0540
     22 C         144.4275  141.1946  163.6126 C.ar    1  UNL1        0.0801
     23 C         144.6601  140.5352  162.2855 C.ar    1  UNL1        0.0308
     24 C         143.9176  139.2319  162.2791 C.ar    1  UNL1        0.0572
     25 C         143.8742  138.2475  161.1481 C.3     1  UNL1        0.0517
     26 N         143.2261  139.0858  163.6022 N.ar    1  UNL1       -0.2532
     27 N         143.5412  140.2988  164.4263 N.ar    1  UNL1       -0.1739
     28 C         138.9422  142.7184  155.9690 C.3     1  UNL1        0.1007
     29 C         139.2813  144.1386  156.3127 C.ar    1  UNL1        0.0129
     30 C         140.1157  144.5893  157.4748 C.ar    1  UNL1        0.0176
     31 C         140.1956  146.0867  157.4350 C.ar    1  UNL1        0.0799
     32 N         139.4106  146.5614  156.2482 N.ar    1  UNL1       -0.3038
     33 C         138.8455  145.3574  155.5546 C.ar    1  UNL1        0.0772
     34 C         139.2235  147.9893  155.8287 C.ar    1  UNL1        0.0640
     35 C         138.4868  148.9430  156.7217 C.ar    1  UNL1        0.0175
     36 C         138.2997  150.3709  156.3022 C.ar    1  UNL1        0.0053
     37 C         138.8493  150.8451  154.9897 C.ar    1  UNL1        0.0715
     38 C         139.5860  149.8914  154.0965 C.ar    1  UNL1        0.0053
     39 C         139.7731  148.4635  154.5160 C.ar    1  UNL1        0.0175
     40 C         138.6622  152.2730  154.5702 C.3     1  UNL1        0.4186
     41 F         138.4751  153.7010  154.1505 F       1  UNL1       -0.1659
     42 F         138.6191  152.6905  156.0102 F       1  UNL1       -0.1659
     43 F         138.7053  151.8556  153.1300 F       1  UNL1       -0.1659
@<TRIPOS>BOND
     1    21    22    1
     2    22    23   ar
     3    23    24   ar
     4    24    25    1
     5    24    26   ar
     6    26    20    1
     7    20    13    1
     8    13     7    1
     9     7     8   am
    10     8     9    2
    11     8    10   am
    12    10     1    1
    13     1     2    1
    14     2     3    1
    15     3     4    1
    16     4    28    1
    17    28    29    1
    18    29    30   ar
    19    30    31   ar
    20    31    32   ar
    21    32    34    1
    22    34    35   ar
    23    35    36   ar
    24    36    37   ar
    25    37    40    1
    26    40    41    1
    27    40    42    1
    28    40    43    1
    29    37    38   ar
    30    38    39   ar
    31    32    33   ar
    32     4     5    1
    33     5     6    1
    34    13    14    1
    35    14    15   ar
    36    15    16   ar
    37    16    17   ar
    38    17    18   ar
    39    18    19   ar
    40    26    27   ar
    41    27    22   ar
    42     6     1    1
    43    19    14   ar
    44    33    29   ar
    45    39    34   ar
    46     7    11    1
    47    10    12    1
@<TRIPOS>MOLECULE
*****
 43 47 0 0 0
SMALL
GASTEIGER

@<TRIPOS>ATOM
      1 C         140.1570  145.0181  156.7071 C.3     1  UNL1        0.0758
      2 C         138.9998  145.7216  156.0621 C.3     1  UNL1        0.0370
      3 C         138.3152  145.1079  154.8770 C.3     1  UNL1        0.0741
      4 N         138.7877  143.7908  154.3368 N.3     1  UNL1       -0.2688
      5 C         139.9448  143.0872  154.9817 C.3     1  UNL1        0.0741
      6 C         140.6295  143.7009  156.1669 C.3     1  UNL1        0.0370
      7 N         141.2705  145.7063  160.4537 N.am    1  UNL1       -0.2848
      8 C         140.5858  145.0927  159.2685 C.2     1  UNL1        0.3010
      9 O         139.6451  143.9400  159.4595 O.2     1  UNL1       -0.2528
     10 N         140.8417  145.6317  157.8923 N.am    1  UNL1       -0.2905
     11 H         141.8879  146.4629  160.3283 H       1  UNL1        0.1513
     12 H         141.4591  146.3883  157.7669 H       1  UNL1        0.1509
     13 C         141.0146  145.1673  161.8299 C.3     1  UNL1        0.1199
     14 C         142.1188  144.4924  162.5883 C.ar    1  UNL1       -0.0025
     15 C         142.5504  143.1066  162.2101 C.ar    1  UNL1       -0.0026
     16 C         143.6547  142.4318  162.9686 C.ar    1  UNL1       -0.0003
     17 C         144.3273  143.1428  164.1052 C.ar    1  UNL1       -0.0000
     18 C         143.8956  144.5286  164.4835 C.ar    1  UNL1       -0.0003
     19 C         142.7914  145.2035  163.7250 C.ar    1  UNL1       -0.0026
     20 C         139.6544  145.3031  162.4476 C.3     1  UNL1        0.1510
     21 C         137.4779  140.5177  162.9410 C.3     1  UNL1        0.0540
     22 C         137.9691  141.9005  163.2520 C.ar    1  UNL1        0.0801
     23 C         137.8621  142.5972  164.5762 C.ar    1  UNL1        0.0308
     24 C         138.4804  143.9566  164.4360 C.ar    1  UNL1        0.0572
     25 C         138.5904  144.9909  165.5168 C.3     1  UNL1        0.0517
     26 N         138.9695  144.1001  163.0252 N.ar    1  UNL1       -0.2532
     27 N         138.6535  142.8294  162.2935 N.ar    1  UNL1       -0.1739
     28 C         138.1030  143.1771  153.1516 C.3     1  UNL1        0.1007
     29 C         136.7128  142.6306  153.2884 C.ar    1  UNL1        0.0129
     30 C         135.6674  142.6008  152.2132 C.ar    1  UNL1        0.0176
     31 C         134.4325  141.9697  152.7848 C.ar    1  UNL1        0.0799
     32 N         134.7147  141.6094  154.2133 N.ar    1  UNL1       -0.3038
     33 C         136.1241  142.0178  154.5245 C.ar    1  UNL1        0.0772
     34 C         133.7560  140.9554  155.1636 C.ar    1  UNL1        0.0640
     35 C         134.2323  139.8665  156.0787 C.ar    1  UNL1        0.0175
     36 C         133.2735  139.2126  157.0290 C.ar    1  UNL1        0.0053
     37 C         131.8385  139.6476  157.0643 C.ar    1  UNL1        0.0715
     38 C         131.3621  140.7365  156.1492 C.ar    1  UNL1        0.0053
     39 C         132.3208  141.3904  155.1989 C.ar    1  UNL1        0.0175
     40 C         130.8797  138.9937  158.0146 C.3     1  UNL1        0.4186
     41 F         129.9210  138.3397  158.9650 F       1  UNL1       -0.1659
     42 F         129.7483  139.7678  157.4058 F       1  UNL1       -0.1659
     43 F         132.0112  138.2195  158.6234 F       1  UNL1       -0.1659
@<TRIPOS>BOND
     1    21    22    1
     2    22    23   ar
     3    23    24   ar
     4    24    25    1
     5    24    26   ar
     6    26    20    1
     7    20    13    1
     8    13     7    1
     9     7     8   am
    10     8     9    2
    11     8    10   am
    12    10     1    1
    13     1     2    1
    14     2     3    1
    15     3     4    1
    16     4    28    1
    17    28    29    1
    18    29    30   ar
    19    30    31   ar
    20    31    32   ar
    21    32    34    1
    22    34    35   ar
    23    35    36   ar
    24    36    37   ar
    25    37    40    1
    26    40    41    1
    27    40    42    1
    28    40    43    1
    29    37    38   ar
    30    38    39   ar
    31    32    33   ar
    32     4     5    1
    33     5     6    1
    34    13    14    1
    35    14    15   ar
    36    15    16   ar
    37    16    17   ar
    38    17    18   ar
    39    18    19   ar
    40    26    27   ar
    41    27    22   ar
    42     6     1    1
    43    19    14   ar
    44    33    29   ar
    45    39    34   ar
    46     7    11    1
    47    10    12    1
@<TRIPOS>MOLECULE
*****
 43 47 0 0 0
SMALL
GASTEIGER

@<TRIPOS>ATOM
      1 C         140.3058  138.4364  161.4045 C.3     1  UNL1        0.0758
      2 C         139.6687  138.7560  160.0848 C.3     1  UNL1        0.0370
      3 C         140.4380  138.5562  158.8127 C.3     1  UNL1        0.0741
      4 N         141.8444  138.0369  158.8604 N.3     1  UNL1       -0.2688
      5 C         142.4815  137.7173  160.1802 C.3     1  UNL1        0.0741
      6 C         141.7122  137.9171  161.4523 C.3     1  UNL1        0.0370
      7 N         139.2437  139.8310  164.9651 N.am    1  UNL1       -0.2848
      8 C         140.0130  139.6312  163.6930 C.2     1  UNL1        0.3010
      9 O         141.2588  140.4265  163.4372 O.2     1  UNL1       -0.2528
     10 N         139.5365  138.6362  162.6767 N.am    1  UNL1       -0.2905
     11 H         138.4260  139.3091  165.1331 H       1  UNL1        0.1513
     12 H         138.7188  138.1143  162.8446 H       1  UNL1        0.1509
     13 C         139.7202  140.8260  165.9814 C.3     1  UNL1        0.1199
     14 C         140.5197  140.3657  167.1641 C.ar    1  UNL1       -0.0025
     15 C         139.9081  140.3785  168.5337 C.ar    1  UNL1       -0.0026
     16 C         140.7076  139.9181  169.7165 C.ar    1  UNL1       -0.0003
     17 C         142.1187  139.4450  169.5297 C.ar    1  UNL1       -0.0000
     18 C         142.7303  139.4322  168.1601 C.ar    1  UNL1       -0.0003
     19 C         141.9309  139.8925  166.9773 C.ar    1  UNL1       -0.0026
     20 C         139.3973  142.2813  165.8149 C.3     1  UNL1        0.1510
     21 C         143.7633  144.6547  164.0300 C.3     1  UNL1        0.0540
     22 C         142.3278  144.2611  164.2156 C.ar    1  UNL1        0.0801
     23 C         141.1569  144.8149  163.4590 C.ar    1  UNL1        0.0308
     24 C         139.9166  144.1407  163.9661 C.ar    1  UNL1        0.0572
     25 C         138.5176  144.3927  163.4873 C.3     1  UNL1        0.0517
     26 N         140.3210  143.1702  165.0360 N.ar    1  UNL1       -0.2532
     27 N         141.8112  143.2446  165.1901 N.ar    1  UNL1       -0.1739
     28 C         142.6137  137.8371  157.5882 C.3     1  UNL1        0.1007
     29 C         142.4102  136.5924  156.7763 C.ar    1  UNL1        0.0129
     30 C         141.2573  136.3181  155.8568 C.ar    1  UNL1        0.0176
     31 C         141.4585  134.9596  155.2536 C.ar    1  UNL1        0.0799
     32 N         142.7358  134.3942  155.8003 N.ar    1  UNL1       -0.3038
     33 C         143.3240  135.4033  156.7414 C.ar    1  UNL1        0.0772
     34 C         143.3220  133.0548  155.4648 C.ar    1  UNL1        0.0640
     35 C         142.8870  132.3357  154.2225 C.ar    1  UNL1        0.0175
     36 C         143.4731  130.9963  153.8870 C.ar    1  UNL1        0.0053
     37 C         144.4943  130.3761  154.7939 C.ar    1  UNL1        0.0715
     38 C         144.9293  131.0953  156.0363 C.ar    1  UNL1        0.0053
     39 C         144.3432  132.4346  156.3718 C.ar    1  UNL1        0.0175
     40 C         145.0804  129.0368  154.4584 C.3     1  UNL1        0.4186
     41 F         145.6666  127.6974  154.1230 F       1  UNL1       -0.1659
     42 F         144.8724  129.3115  152.9985 F       1  UNL1       -0.1659
     43 F         145.2884  128.7621  155.9184 F       1  UNL1       -0.1659
@<TRIPOS>BOND
     1    21    22    1
     2    22    23   ar
     3    23    24   ar
     4    24    25    1
     5    24    26   ar
     6    26    20    1
     7    20    13    1
     8    13     7    1
     9     7     8   am
    10     8     9    2
    11     8    10   am
    12    10     1    1
    13     1     2    1
    14     2     3    1
    15     3     4    1
    16     4    28    1
    17    28    29    1
    18    29    30   ar
    19    30    31   ar
    20    31    32   ar
    21    32    34    1
    22    34    35   ar
    23    35    36   ar
    24    36    37   ar
    25    37    40    1
    26    40    41    1
    27    40    42    1
    28    40    43    1
    29    37    38   ar
    30    38    39   ar
    31    32    33   ar
    32     4     5    1
    33     5     6    1
    34    13    14    1
    35    14    15   ar
    36    15    16   ar
    37    16    17   ar
    38    17    18   ar
    39    18    19   ar
    40    26    27   ar
    41    27    22   ar
    42     6     1    1
    43    19    14   ar
    44    33    29   ar
    45    39    34   ar
    46     7    11    1
    47    10    12    1
@<TRIPOS>MOLECULE
*****
 43 47 0 0 0
SMALL
GASTEIGER

@<TRIPOS>ATOM
      1 C         143.4729  139.5711  160.9646 C.3     1  UNL1        0.0758
      2 C         143.8635  140.5662  159.9124 C.3     1  UNL1        0.0370
      3 C         143.7586  140.2030  158.4609 C.3     1  UNL1        0.0741
      4 N         143.2630  138.8447  158.0615 N.3     1  UNL1       -0.2688
      5 C         142.8724  137.8497  159.1137 C.3     1  UNL1        0.0741
      6 C         142.9773  138.2128  160.5653 C.3     1  UNL1        0.0370
      7 N         142.5277  140.9570  164.5614 N.am    1  UNL1       -0.2848
      8 C         142.4228  140.5939  163.1097 C.2     1  UNL1        0.3010
      9 O         141.1629  140.8903  162.3517 O.2     1  UNL1       -0.2528
     10 N         143.5778  139.9343  162.4163 N.am    1  UNL1       -0.2905
     11 H         143.3547  140.7625  165.0590 H       1  UNL1        0.1513
     12 H         144.4047  139.7397  162.9138 H       1  UNL1        0.1509
     13 C         141.3728  141.6166  165.2549 C.3     1  UNL1        0.1199
     14 C         140.2972  140.7798  165.8815 C.ar    1  UNL1       -0.0025
     15 C         139.2464  140.1422  165.0217 C.ar    1  UNL1       -0.0026
     16 C         138.1707  139.3053  165.6484 C.ar    1  UNL1       -0.0003
     17 C         138.1459  139.1061  167.1349 C.ar    1  UNL1       -0.0000
     18 C         139.1967  139.7437  167.9947 C.ar    1  UNL1       -0.0003
     19 C         140.2723  140.5805  167.3681 C.ar    1  UNL1       -0.0026
     20 C         141.2934  143.1130  165.3217 C.3     1  UNL1        0.1510
     21 C         140.7639  145.3382  160.5626 C.3     1  UNL1        0.0540
     22 C         140.4960  144.9100  161.9750 C.ar    1  UNL1        0.0801
     23 C         139.2776  145.2471  162.7825 C.ar    1  UNL1        0.0308
     24 C         139.4281  144.6150  164.1344 C.ar    1  UNL1        0.0572
     25 C         138.4406  144.6964  165.2606 C.3     1  UNL1        0.0517
     26 N         140.7394  143.8872  164.1625 N.ar    1  UNL1       -0.2532
     27 N         141.3994  144.0695  162.8280 N.ar    1  UNL1       -0.1739
     28 C         143.1581  138.4816  156.6099 C.3     1  UNL1        0.1007
     29 C         142.7219  137.1029  156.2113 C.ar    1  UNL1        0.0129
     30 C         141.3089  136.6599  155.9721 C.ar    1  UNL1        0.0176
     31 C         141.3358  135.2084  155.5949 C.ar    1  UNL1        0.0799
     32 N         142.7654  134.7542  155.6011 N.ar    1  UNL1       -0.3038
     33 C         143.6220  135.9251  155.9820 C.ar    1  UNL1        0.0772
     34 C         143.2527  133.3719  155.2823 C.ar    1  UNL1        0.0640
     35 C         144.2375  132.6959  156.1896 C.ar    1  UNL1        0.0175
     36 C         144.7248  131.3136  155.8707 C.ar    1  UNL1        0.0053
     37 C         144.2274  130.6073  154.6446 C.ar    1  UNL1        0.0715
     38 C         143.2427  131.2832  153.7372 C.ar    1  UNL1        0.0053
     39 C         142.7553  132.6655  154.0560 C.ar    1  UNL1        0.0175
     40 C         144.7148  129.2250  154.3258 C.3     1  UNL1        0.4186
     41 F         145.2022  127.8426  154.0070 F       1  UNL1       -0.1659
     42 F         143.9133  129.2348  153.0579 F       1  UNL1       -0.1659
     43 F         145.5163  129.2151  155.5937 F       1  UNL1       -0.1659
@<TRIPOS>BOND
     1    21    22    1
     2    22    23   ar
     3    23    24   ar
     4    24    25    1
     5    24    26   ar
     6    26    20    1
     7    20    13    1
     8    13     7    1
     9     7     8   am
    10     8     9    2
    11     8    10   am
    12    10     1    1
    13     1     2    1
    14     2     3    1
    15     3     4    1
    16     4    28    1
    17    28    29    1
    18    29    30   ar
    19    30    31   ar
    20    31    32   ar
    21    32    34    1
    22    34    35   ar
    23    35    36   ar
    24    36    37   ar
    25    37    40    1
    26    40    41    1
    27    40    42    1
    28    40    43    1
    29    37    38   ar
    30    38    39   ar
    31    32    33   ar
    32     4     5    1
    33     5     6    1
    34    13    14    1
    35    14    15   ar
    36    15    16   ar
    37    16    17   ar
    38    17    18   ar
    39    18    19   ar
    40    26    27   ar
    41    27    22   ar
    42     6     1    1
    43    19    14   ar
    44    33    29   ar
    45    39    34   ar
    46     7    11    1
    47    10    12    1
@<TRIPOS>MOLECULE
*****
 43 47 0 0 0
SMALL
GASTEIGER

@<TRIPOS>ATOM
      1 C         143.3131  139.3226  161.2858 C.3     1  UNL1        0.0758
      2 C         142.7767  138.0078  160.8025 C.3     1  UNL1        0.0370
      3 C         142.6908  137.7281  159.3313 C.3     1  UNL1        0.0741
      4 N         143.1413  138.7631  158.3435 N.3     1  UNL1       -0.2688
      5 C         143.6777  140.0779  158.8268 C.3     1  UNL1        0.0741
      6 C         143.7636  140.3576  160.2980 C.3     1  UNL1        0.0370
      7 N         142.3627  140.5948  164.9229 N.am    1  UNL1       -0.2848
      8 C         142.2768  140.3150  163.4517 C.2     1  UNL1        0.3010
      9 O         141.0686  140.7479  162.6753 O.2     1  UNL1       -0.2528
     10 N         143.3990  139.6024  162.7570 N.am    1  UNL1       -0.2905
     11 H         143.1557  140.3107  165.4326 H       1  UNL1        0.1513
     12 H         144.1920  139.3183  163.2666 H       1  UNL1        0.1509
     13 C         141.2405  141.3075  165.6177 C.3     1  UNL1        0.1199
     14 C         140.1299  140.5215  166.2491 C.ar    1  UNL1       -0.0025
     15 C         139.9735  140.5095  167.7409 C.ar    1  UNL1       -0.0026
     16 C         138.8629  139.7235  168.3723 C.ar    1  UNL1       -0.0003
     17 C         137.9086  138.9495  167.5119 C.ar    1  UNL1       -0.0000
     18 C         138.0649  138.9615  166.0201 C.ar    1  UNL1       -0.0003
     19 C         139.1755  139.7475  165.3887 C.ar    1  UNL1       -0.0026
     20 C         141.2289  142.8061  165.6809 C.3     1  UNL1        0.1510
     21 C         140.4836  145.5635  161.2400 C.3     1  UNL1        0.0540
     22 C         141.1429  144.8785  162.4003 C.ar    1  UNL1        0.0801
     23 C         142.6177  144.8213  162.6684 C.ar    1  UNL1        0.0308
     24 C         142.8294  144.0380  163.9300 C.ar    1  UNL1        0.0572
     25 C         144.1526  143.7348  164.5680 C.3     1  UNL1        0.0517
     26 N         141.4855  143.6111  164.4416 N.ar    1  UNL1       -0.2532
     27 N         140.4432  144.1306  163.4962 N.ar    1  UNL1       -0.1739
     28 C         143.0554  138.4833  156.8723 C.3     1  UNL1        0.1007
     29 C         142.6930  137.1101  156.3899 C.ar    1  UNL1        0.0129
     30 C         141.3386  136.6699  155.9189 C.ar    1  UNL1        0.0176
     31 C         141.4298  135.2236  155.5318 C.ar    1  UNL1        0.0799
     32 N         142.8407  134.7699  155.7635 N.ar    1  UNL1       -0.3038
     33 C         143.6214  135.9358  156.2938 C.ar    1  UNL1        0.0772
     34 C         143.3768  133.3922  155.5094 C.ar    1  UNL1        0.0640
     35 C         142.9480  132.6339  154.2883 C.ar    1  UNL1        0.0175
     36 C         143.4840  131.2562  154.0343 C.ar    1  UNL1        0.0053
     37 C         144.4489  130.6368  155.0013 C.ar    1  UNL1        0.0715
     38 C         144.8777  131.3950  156.2224 C.ar    1  UNL1        0.0053
     39 C         144.3417  132.7727  156.4765 C.ar    1  UNL1        0.0175
     40 C         144.9849  129.2591  154.7472 C.3     1  UNL1        0.4186
     41 F         145.5210  127.8814  154.4931 F       1  UNL1       -0.1659
     42 F         144.8599  128.9411  156.2078 F       1  UNL1       -0.1659
     43 F         145.1099  129.5771  153.2866 F       1  UNL1       -0.1659
@<TRIPOS>BOND
     1    21    22    1
     2    22    23   ar
     3    23    24   ar
     4    24    25    1
     5    24    26   ar
     6    26    20    1
     7    20    13    1
     8    13     7    1
     9     7     8   am
    10     8     9    2
    11     8    10   am
    12    10     1    1
    13     1     2    1
    14     2     3    1
    15     3     4    1
    16     4    28    1
    17    28    29    1
    18    29    30   ar
    19    30    31   ar
    20    31    32   ar
    21    32    34    1
    22    34    35   ar
    23    35    36   ar
    24    36    37   ar
    25    37    40    1
    26    40    41    1
    27    40    42    1
    28    40    43    1
    29    37    38   ar
    30    38    39   ar
    31    32    33   ar
    32     4     5    1
    33     5     6    1
    34    13    14    1
    35    14    15   ar
    36    15    16   ar
    37    16    17   ar
    38    17    18   ar
    39    18    19   ar
    40    26    27   ar
    41    27    22   ar
    42     6     1    1
    43    19    14   ar
    44    33    29   ar
    45    39    34   ar
    46     7    11    1
    47    10    12    1
@<TRIPOS>MOLECULE
*****
 43 47 0 0 0
SMALL
GASTEIGER

@<TRIPOS>ATOM
      1 C         143.2943  142.7420  157.7870 C.3     1  UNL1        0.0758
      2 C         142.2933  142.4272  156.7151 C.3     1  UNL1        0.0370
      3 C         142.5092  141.2513  155.8093 C.3     1  UNL1        0.0741
      4 N         143.7261  140.3902  155.9753 N.3     1  UNL1       -0.2688
      5 C         144.7271  140.7049  157.0471 C.3     1  UNL1        0.0741
      6 C         144.5112  141.8808  157.9530 C.3     1  UNL1        0.0370
      7 N         142.2704  144.8917  160.9620 N.am    1  UNL1       -0.2848
      8 C         142.4862  143.7157  160.0561 C.2     1  UNL1        0.3010
      9 O         142.1098  142.3376  160.5134 O.2     1  UNL1       -0.2528
     10 N         143.0785  143.9179  158.6929 N.am    1  UNL1       -0.2905
     11 H         142.5174  145.7962  160.6619 H       1  UNL1        0.1513
     12 H         143.3255  144.8224  158.3927 H       1  UNL1        0.1509
     13 C         141.6781  144.6895  162.3252 C.3     1  UNL1        0.1199
     14 C         142.5305  144.1665  163.4431 C.ar    1  UNL1       -0.0025
     15 C         142.3018  142.7834  163.9767 C.ar    1  UNL1       -0.0026
     16 C         143.1543  142.2604  165.0948 C.ar    1  UNL1       -0.0003
     17 C         144.2353  143.1205  165.6791 C.ar    1  UNL1       -0.0000
     18 C         144.4640  144.5036  165.1455 C.ar    1  UNL1       -0.0003
     19 C         143.6116  145.0266  164.0276 C.ar    1  UNL1       -0.0026
     20 C         140.2335  145.0103  162.5704 C.3     1  UNL1        0.1510
     21 C         137.3261  140.6033  162.6429 C.3     1  UNL1        0.0540
     22 C         137.9535  141.9052  163.0446 C.ar    1  UNL1        0.0801
     23 C         137.7219  142.6346  164.3348 C.ar    1  UNL1        0.0308
     24 C         138.5479  143.8865  164.3142 C.ar    1  UNL1        0.0572
     25 C         138.6193  144.9137  165.4050 C.3     1  UNL1        0.0517
     26 N         139.2899  143.9310  163.0113 N.ar    1  UNL1       -0.2532
     27 N         138.9225  142.7065  162.2267 N.ar    1  UNL1       -0.1739
     28 C         143.9420  139.2142  155.0694 C.3     1  UNL1        0.1007
     29 C         143.2310  137.9209  155.3369 C.ar    1  UNL1        0.0129
     30 C         141.7502  137.6956  155.2556 C.ar    1  UNL1        0.0176
     31 C         141.4799  136.2612  155.6012 C.ar    1  UNL1        0.0799
     32 N         142.7937  135.5999  155.8962 N.ar    1  UNL1       -0.3038
     33 C         143.8758  136.6257  155.7328 C.ar    1  UNL1        0.0772
     34 C         142.9906  134.1650  156.2860 C.ar    1  UNL1        0.0640
     35 C         144.0759  133.7923  157.2520 C.ar    1  UNL1        0.0175
     36 C         144.2728  132.3573  157.6418 C.ar    1  UNL1        0.0053
     37 C         143.3844  131.2950  157.0657 C.ar    1  UNL1        0.0715
     38 C         142.2990  131.6675  156.0997 C.ar    1  UNL1        0.0053
     39 C         142.1021  133.1025  155.7099 C.ar    1  UNL1        0.0175
     40 C         143.5813  129.8600  157.4555 C.3     1  UNL1        0.4186
     41 F         143.7783  128.4250  157.8454 F       1  UNL1       -0.1659
     42 F         142.5066  129.4509  156.4925 F       1  UNL1       -0.1659
     43 F         144.6561  130.2691  158.4187 F       1  UNL1       -0.1659
@<TRIPOS>BOND
     1    21    22    1
     2    22    23   ar
     3    23    24   ar
     4    24    25    1
     5    24    26   ar
     6    26    20    1
     7    20    13    1
     8    13     7    1
     9     7     8   am
    10     8     9    2
    11     8    10   am
    12    10     1    1
    13     1     2    1
    14     2     3    1
    15     3     4    1
    16     4    28    1
    17    28    29    1
    18    29    30   ar
    19    30    31   ar
    20    31    32   ar
    21    32    34    1
    22    34    35   ar
    23    35    36   ar
    24    36    37   ar
    25    37    40    1
    26    40    41    1
    27    40    42    1
    28    40    43    1
    29    37    38   ar
    30    38    39   ar
    31    32    33   ar
    32     4     5    1
    33     5     6    1
    34    13    14    1
    35    14    15   ar
    36    15    16   ar
    37    16    17   ar
    38    17    18   ar
    39    18    19   ar
    40    26    27   ar
    41    27    22   ar
    42     6     1    1
    43    19    14   ar
    44    33    29   ar
    45    39    34   ar
    46     7    11    1
    47    10    12    1
@<TRIPOS>MOLECULE
*****
 43 47 0 0 0
SMALL
GASTEIGER

@<TRIPOS>ATOM
      1 C         141.3657  138.9679  161.6447 C.3     1  UNL1        0.0758
      2 C         140.6508  139.5862  160.4800 C.3     1  UNL1        0.0370
      3 C         141.1298  139.3268  159.0824 C.3     1  UNL1        0.0741
      4 N         142.3237  138.4490  158.8496 N.3     1  UNL1       -0.2688
      5 C         143.0386  137.8308  160.0143 C.3     1  UNL1        0.0741
      6 C         142.5596  138.0902  161.4119 C.3     1  UNL1        0.0370
      7 N         141.1329  140.4691  165.3112 N.am    1  UNL1       -0.2848
      8 C         141.6119  140.2097  163.9135 C.2     1  UNL1        0.3010
      9 O         142.8162  140.9327  163.3871 O.2     1  UNL1       -0.2528
     10 N         140.8867  139.2274  163.0423 N.am    1  UNL1       -0.2905
     11 H         140.3425  139.9946  165.6567 H       1  UNL1        0.1513
     12 H         140.0963  138.7529  163.3878 H       1  UNL1        0.1509
     13 C         141.8582  141.4515  166.1823 C.3     1  UNL1        0.1199
     14 C         142.2627  141.0640  167.5738 C.ar    1  UNL1       -0.0025
     15 C         141.9562  139.6888  168.0884 C.ar    1  UNL1       -0.0026
     16 C         142.3608  139.3013  169.4799 C.ar    1  UNL1       -0.0003
     17 C         143.0718  140.2890  170.3567 C.ar    1  UNL1       -0.0000
     18 C         143.3783  141.6642  169.8421 C.ar    1  UNL1       -0.0003
     19 C         142.9738  142.0517  168.4506 C.ar    1  UNL1       -0.0026
     20 C         142.1789  142.8213  165.6620 C.3     1  UNL1        0.1510
     21 C         137.6933  144.2846  163.2916 C.3     1  UNL1        0.0540
     22 C         139.1374  144.2095  163.6905 C.ar    1  UNL1        0.0801
     23 C         140.2456  145.0670  163.1551 C.ar    1  UNL1        0.0308
     24 C         141.5199  144.6513  163.8285 C.ar    1  UNL1        0.0572
     25 C         142.8766  145.2456  163.5918 C.3     1  UNL1        0.0517
     26 N         141.1992  143.5370  164.7801 N.ar    1  UNL1       -0.2532
     27 N         139.7267  143.2640  164.6948 N.ar    1  UNL1       -0.1739
     28 C         142.8027  138.1896  157.4520 C.3     1  UNL1        0.1007
     29 C         142.5134  136.8740  156.7921 C.ar    1  UNL1        0.0129
     30 C         141.2318  136.4911  156.1133 C.ar    1  UNL1        0.0176
     31 C         141.3812  135.0908  155.5968 C.ar    1  UNL1        0.0799
     32 N         142.7553  134.6083  155.9563 N.ar    1  UNL1       -0.3038
     33 C         143.4550  135.7104  156.6950 C.ar    1  UNL1        0.0772
     34 C         143.3288  133.2603  155.6337 C.ar    1  UNL1        0.0640
     35 C         144.3866  132.6649  156.5149 C.ar    1  UNL1        0.0175
     36 C         144.9601  131.3170  156.1923 C.ar    1  UNL1        0.0053
     37 C         144.4759  130.5645  154.9886 C.ar    1  UNL1        0.0715
     38 C         143.4181  131.1598  154.1073 C.ar    1  UNL1        0.0053
     39 C         142.8446  132.5078  154.4299 C.ar    1  UNL1        0.0175
     40 C         145.0495  129.2165  154.6660 C.3     1  UNL1        0.4186
     41 F         145.6230  127.8686  154.3433 F       1  UNL1       -0.1659
     42 F         145.0289  128.8592  156.1227 F       1  UNL1       -0.1659
     43 F         145.0700  129.5738  153.2093 F       1  UNL1       -0.1659
@<TRIPOS>BOND
     1    21    22    1
     2    22    23   ar
     3    23    24   ar
     4    24    25    1
     5    24    26   ar
     6    26    20    1
     7    20    13    1
     8    13     7    1
     9     7     8   am
    10     8     9    2
    11     8    10   am
    12    10     1    1
    13     1     2    1
    14     2     3    1
    15     3     4    1
    16     4    28    1
    17    28    29    1
    18    29    30   ar
    19    30    31   ar
    20    31    32   ar
    21    32    34    1
    22    34    35   ar
    23    35    36   ar
    24    36    37   ar
    25    37    40    1
    26    40    41    1
    27    40    42    1
    28    40    43    1
    29    37    38   ar
    30    38    39   ar
    31    32    33   ar
    32     4     5    1
    33     5     6    1
    34    13    14    1
    35    14    15   ar
    36    15    16   ar
    37    16    17   ar
    38    17    18   ar
    39    18    19   ar
    40    26    27   ar
    41    27    22   ar
    42     6     1    1
    43    19    14   ar
    44    33    29   ar
    45    39    34   ar
    46     7    11    1
    47    10    12    1
@<TRIPOS>MOLECULE
*****
 43 47 0 0 0
SMALL
GASTEIGER

@<TRIPOS>ATOM
      1 C         140.8750  139.7324  159.4774 C.3     1  UNL1        0.0758
      2 C         139.8725  138.9558  158.6762 C.3     1  UNL1        0.0370
      3 C         140.3072  138.2149  157.4466 C.3     1  UNL1        0.0741
      4 N         141.7442  138.2506  157.0181 N.3     1  UNL1       -0.2688
      5 C         142.7467  139.0272  157.8193 C.3     1  UNL1        0.0741
      6 C         142.3120  139.7681  159.0490 C.3     1  UNL1        0.0370
      7 N         140.3319  140.6690  163.2956 N.am    1  UNL1       -0.2848
      8 C         140.7665  139.9280  162.0659 C.2     1  UNL1        0.3010
      9 O         141.5272  138.6417  162.1950 O.2     1  UNL1       -0.2528
     10 N         140.4404  140.4734  160.7072 N.am    1  UNL1       -0.2905
     11 H         139.8326  141.5132  163.2109 H       1  UNL1        0.1513
     12 H         139.9411  141.3176  160.6224 H       1  UNL1        0.1509
     13 C         140.6580  140.1236  164.6543 C.3     1  UNL1        0.1199
     14 C         139.6426  139.3081  165.3986 C.ar    1  UNL1       -0.0025
     15 C         139.2845  137.9338  164.9158 C.ar    1  UNL1       -0.0026
     16 C         138.2691  137.1183  165.6602 C.ar    1  UNL1       -0.0003
     17 C         137.6118  137.6771  166.8872 C.ar    1  UNL1       -0.0000
     18 C         137.9700  139.0514  167.3700 C.ar    1  UNL1       -0.0003
     19 C         138.9853  139.8669  166.6258 C.ar    1  UNL1       -0.0026
     20 C         141.9994  140.3937  165.2688 C.3     1  UNL1        0.1510
     21 C         143.9267  144.8776  163.2538 C.3     1  UNL1        0.0540
     22 C         143.8101  143.4550  163.7148 C.ar    1  UNL1        0.0801
     23 C         144.8847  142.4114  163.6349 C.ar    1  UNL1        0.0308
     24 C         144.3371  141.1376  164.2073 C.ar    1  UNL1        0.0572
     25 C         145.0733  139.8360  164.3254 C.3     1  UNL1        0.0517
     26 N         142.9242  141.3940  164.6410 N.ar    1  UNL1       -0.2532
     27 N         142.5985  142.8262  164.3366 N.ar    1  UNL1       -0.1739
     28 C         142.1788  137.5096  155.7884 C.3     1  UNL1        0.1007
     29 C         142.0816  136.0135  155.7406 C.ar    1  UNL1        0.0129
     30 C         141.0750  135.2199  154.9617 C.ar    1  UNL1        0.0176
     31 C         141.3452  133.7643  155.2031 C.ar    1  UNL1        0.0799
     32 N         142.5189  133.6583  156.1311 N.ar    1  UNL1       -0.3038
     33 C         142.9740  135.0485  156.4633 C.ar    1  UNL1        0.0772
     34 C         143.1301  132.3857  156.6380 C.ar    1  UNL1        0.0640
     35 C         142.5551  131.0624  156.2281 C.ar    1  UNL1        0.0175
     36 C         143.1663  129.7898  156.7350 C.ar    1  UNL1        0.0053
     37 C         144.3525  129.8405  157.6516 C.ar    1  UNL1        0.0715
     38 C         144.9275  131.1639  158.0615 C.ar    1  UNL1        0.0053
     39 C         144.3163  132.4365  157.5547 C.ar    1  UNL1        0.0175
     40 C         144.9637  128.5679  158.1584 C.3     1  UNL1        0.4186
     41 F         145.5749  127.2953  158.6652 F       1  UNL1       -0.1659
     42 F         144.6376  128.9718  159.5658 F       1  UNL1       -0.1659
     43 F         145.2897  128.1640  156.7511 F       1  UNL1       -0.1659
@<TRIPOS>BOND
     1    21    22    1
     2    22    23   ar
     3    23    24   ar
     4    24    25    1
     5    24    26   ar
     6    26    20    1
     7    20    13    1
     8    13     7    1
     9     7     8   am
    10     8     9    2
    11     8    10   am
    12    10     1    1
    13     1     2    1
    14     2     3    1
    15     3     4    1
    16     4    28    1
    17    28    29    1
    18    29    30   ar
    19    30    31   ar
    20    31    32   ar
    21    32    34    1
    22    34    35   ar
    23    35    36   ar
    24    36    37   ar
    25    37    40    1
    26    40    41    1
    27    40    42    1
    28    40    43    1
    29    37    38   ar
    30    38    39   ar
    31    32    33   ar
    32     4     5    1
    33     5     6    1
    34    13    14    1
    35    14    15   ar
    36    15    16   ar
    37    16    17   ar
    38    17    18   ar
    39    18    19   ar
    40    26    27   ar
    41    27    22   ar
    42     6     1    1
    43    19    14   ar
    44    33    29   ar
    45    39    34   ar
    46     7    11    1
    47    10    12    1
