@<TRIPOS>MOLECULE
*****
 33 36 0 0 0
SMALL
GASTEIGER

@<TRIPOS>ATOM
      1 O         138.7846  139.0812  160.0541 O.2     1  UNL1       -0.2665
      2 C         140.2151  138.6329  160.1083 C.ar    1  UNL1        0.2679
      3 C         140.9899  138.4419  158.8383 C.ar    1  UNL1        0.0980
      4 C         142.4203  137.9936  158.8925 C.ar    1  UNL1        0.1453
      5 C         143.0759  137.7364  160.2169 C.ar    1  UNL1        0.0561
      6 C         142.3011  137.9275  161.4870 C.ar    1  UNL1        0.0860
      7 N         140.8707  138.3758  161.4327 N.ar    1  UNL1       -0.2729
      8 C         140.0959  138.5668  162.7029 C.ar    1  UNL1        0.0671
      9 C         139.7272  137.3796  163.5422 C.ar    1  UNL1        0.0207
     10 C         138.9525  137.5706  164.8124 C.ar    1  UNL1        0.0384
     11 C         138.5464  138.9489  165.2432 C.ar    1  UNL1        0.1387
     12 C         138.9151  140.1361  164.4038 C.ar    1  UNL1        0.0384
     13 C         139.6899  139.9451  163.1336 C.ar    1  UNL1        0.0207
     14 O         137.7716  139.1399  166.5133 O.3     1  UNL1       -0.4740
     15 C         138.4966  139.3367  167.8116 C.3     1  UNL1        0.2226
     16 C         139.8071  140.0660  167.8358 C.3     1  UNL1        0.1200
     17 N         139.9639  141.2991  168.6754 N.3     1  UNL1       -0.2696
     18 C         140.5496  142.6043  168.2242 C.3     1  UNL1        0.0722
     19 C         140.5102  143.5554  169.3835 C.3     1  UNL1        0.0188
     20 C         139.9001  142.8380  170.5511 C.3     1  UNL1        0.0188
     21 C         139.5625  141.4436  170.1134 C.3     1  UNL1        0.0722
     22 O         143.1951  137.8025  157.6223 O.3     1  UNL1       -0.4704
     23 C         142.5433  137.1554  156.4364 C.3     1  UNL1        0.2320
     24 C         142.4918  135.6600  156.3321 C.ar    1  UNL1        0.0211
     25 C         141.5067  135.0060  155.4091 C.ar    1  UNL1       -0.0007
     26 C         141.4552  133.5105  155.3048 C.ar    1  UNL1        0.0036
     27 C         142.3888  132.6690  156.1235 C.ar    1  UNL1        0.0714
     28 C         143.3739  133.3230  157.0465 C.ar    1  UNL1        0.0036
     29 C         143.4254  134.8184  157.1508 C.ar    1  UNL1       -0.0007
     30 C         142.3373  131.1735  156.0192 C.3     1  UNL1        0.4186
     31 F         142.2858  129.6780  155.9150 F       1  UNL1       -0.1659
     32 F         141.8340  131.2891  154.6110 F       1  UNL1       -0.1659
     33 F         142.8406  131.0580  157.4275 F       1  UNL1       -0.1659
@<TRIPOS>BOND
     1     1     2    2
     2     2     3   ar
     3     3     4   ar
     4     4    22    1
     5    22    23    1
     6    23    24    1
     7    24    25   ar
     8    25    26   ar
     9    26    27   ar
    10    27    30    1
    11    30    31    1
    12    30    32    1
    13    30    33    1
    14    27    28   ar
    15    28    29   ar
    16     4     5   ar
    17     5     6   ar
    18     6     7   ar
    19     7     8    1
    20     8     9   ar
    21     9    10   ar
    22    10    11   ar
    23    11    14    1
    24    14    15    1
    25    15    16    1
    26    16    17    1
    27    17    18    1
    28    18    19    1
    29    19    20    1
    30    20    21    1
    31    11    12   ar
    32    12    13   ar
    33     7     2   ar
    34    13     8   ar
    35    29    24   ar
    36    21    17    1
@<TRIPOS>MOLECULE
*****
 33 36 0 0 0
SMALL
GASTEIGER

@<TRIPOS>ATOM
      1 O         137.7825  144.5577  162.6861 O.2     1  UNL1       -0.2665
      2 C         138.3201  143.1661  162.8421 C.ar    1  UNL1        0.2679
      3 C         137.8879  142.3209  164.0035 C.ar    1  UNL1        0.0980
      4 C         138.4255  140.9293  164.1595 C.ar    1  UNL1        0.1453
      5 C         139.3954  140.3829  163.1542 C.ar    1  UNL1        0.0561
      6 C         139.8276  141.2281  161.9928 C.ar    1  UNL1        0.0860
      7 N         139.2900  142.6197  161.8368 N.ar    1  UNL1       -0.2729
      8 C         139.7222  143.4649  160.6754 C.ar    1  UNL1        0.0671
      9 C         140.5954  144.6630  160.9036 C.ar    1  UNL1        0.0207
     10 C         141.0276  145.5082  159.7423 C.ar    1  UNL1        0.0384
     11 C         140.5868  145.1553  158.3526 C.ar    1  UNL1        0.1387
     12 C         139.7137  143.9571  158.1243 C.ar    1  UNL1        0.0384
     13 C         139.2814  143.1119  159.2858 C.ar    1  UNL1        0.0207
     14 O         141.0191  146.0005  157.1913 O.3     1  UNL1       -0.4740
     15 C         140.2073  146.0136  155.9299 C.3     1  UNL1        0.2226
     16 C         138.9601  146.8429  155.8493 C.3     1  UNL1        0.1200
     17 N         139.0436  148.2860  155.4487 N.3     1  UNL1       -0.2696
     18 C         139.7115  148.8219  154.2171 C.3     1  UNL1        0.0722
     19 C         139.5544  150.3137  154.2166 C.3     1  UNL1        0.0188
     20 C         138.7895  150.6998  155.4478 C.3     1  UNL1        0.0188
     21 C         138.4738  149.4466  156.2093 C.3     1  UNL1        0.0722
     22 O         137.9932  140.0841  165.3209 O.3     1  UNL1       -0.4704
     23 C         139.0020  139.2615  166.0664 C.3     1  UNL1        0.2320
     24 C         140.1014  139.9359  166.8321 C.ar    1  UNL1        0.0211
     25 C         141.4461  140.1327  166.1974 C.ar    1  UNL1       -0.0007
     26 C         142.5455  140.8072  166.9633 C.ar    1  UNL1        0.0036
     27 C         142.3001  141.2849  168.3638 C.ar    1  UNL1        0.0714
     28 C         140.9553  141.0882  168.9985 C.ar    1  UNL1        0.0036
     29 C         139.8560  140.4137  168.2327 C.ar    1  UNL1       -0.0007
     30 C         143.3995  141.9594  169.1296 C.3     1  UNL1        0.4186
     31 F         144.4989  142.6339  169.8953 F       1  UNL1       -0.1659
     32 F         143.0025  141.2051  170.3638 F       1  UNL1       -0.1659
     33 F         143.7964  142.7137  167.8953 F       1  UNL1       -0.1659
@<TRIPOS>BOND
     1     1     2    2
     2     2     3   ar
     3     3     4   ar
     4     4    22    1
     5    22    23    1
     6    23    24    1
     7    24    25   ar
     8    25    26   ar
     9    26    27   ar
    10    27    30    1
    11    30    31    1
    12    30    32    1
    13    30    33    1
    14    27    28   ar
    15    28    29   ar
    16     4     5   ar
    17     5     6   ar
    18     6     7   ar
    19     7     8    1
    20     8     9   ar
    21     9    10   ar
    22    10    11   ar
    23    11    14    1
    24    14    15    1
    25    15    16    1
    26    16    17    1
    27    17    18    1
    28    18    19    1
    29    19    20    1
    30    20    21    1
    31    11    12   ar
    32    12    13   ar
    33     7     2   ar
    34    13     8   ar
    35    29    24   ar
    36    21    17    1
@<TRIPOS>MOLECULE
*****
 33 36 0 0 0
SMALL
GASTEIGER

@<TRIPOS>ATOM
      1 O         141.1245  136.7480  162.9882 O.2     1  UNL1       -0.2665
      2 C         140.1427  137.8033  163.4036 C.ar    1  UNL1        0.2679
      3 C         139.6192  137.8290  164.8090 C.ar    1  UNL1        0.0980
      4 C         138.6374  138.8842  165.2244 C.ar    1  UNL1        0.1453
      5 C         138.1791  139.9137  164.2345 C.ar    1  UNL1        0.0561
      6 C         138.7027  139.8880  162.8291 C.ar    1  UNL1        0.0860
      7 N         139.6845  138.8328  162.4136 N.ar    1  UNL1       -0.2729
      8 C         140.2080  138.8071  161.0081 C.ar    1  UNL1        0.0671
      9 C         141.6264  139.2071  160.7287 C.ar    1  UNL1        0.0207
     10 C         142.1499  139.1814  159.3233 C.ar    1  UNL1        0.0384
     11 C         141.2551  138.7557  158.1973 C.ar    1  UNL1        0.1387
     12 C         139.8367  138.3556  158.4767 C.ar    1  UNL1        0.0384
     13 C         139.3131  138.3813  159.8821 C.ar    1  UNL1        0.0207
     14 O         141.7786  138.7300  156.7919 O.3     1  UNL1       -0.4740
     15 C         142.8317  137.7356  156.4019 C.3     1  UNL1        0.2226
     16 C         142.9818  136.4596  157.1760 C.3     1  UNL1        0.1200
     17 N         142.5419  135.1593  156.5713 N.3     1  UNL1       -0.2696
     18 C         141.4932  134.9896  155.5121 C.3     1  UNL1        0.0722
     19 C         141.3765  133.5258  155.2058 C.3     1  UNL1        0.0188
     20 C         142.3530  132.7909  156.0755 C.3     1  UNL1        0.0188
     21 C         143.0732  133.8005  156.9194 C.3     1  UNL1        0.0722
     22 O         138.1139  138.9099  166.6299 O.3     1  UNL1       -0.4704
     23 C         138.8624  139.6544  167.6956 C.3     1  UNL1        0.2320
     24 C         140.0779  140.4567  167.3370 C.ar    1  UNL1        0.0211
     25 C         141.4427  139.8473  167.4626 C.ar    1  UNL1       -0.0007
     26 C         142.6583  140.6498  167.1039 C.ar    1  UNL1        0.0036
     27 C         142.5090  142.0615  166.6197 C.ar    1  UNL1        0.0714
     28 C         141.1441  142.6710  166.4941 C.ar    1  UNL1        0.0036
     29 C         139.9286  141.8686  166.8527 C.ar    1  UNL1       -0.0007
     30 C         143.7245  142.8639  166.2611 C.3     1  UNL1        0.4186
     31 F         144.9401  143.6663  165.9024 F       1  UNL1       -0.1659
     32 F         144.1203  142.9107  167.7072 F       1  UNL1       -0.1659
     33 F         143.3288  142.8171  164.8151 F       1  UNL1       -0.1659
@<TRIPOS>BOND
     1     1     2    2
     2     2     3   ar
     3     3     4   ar
     4     4    22    1
     5    22    23    1
     6    23    24    1
     7    24    25   ar
     8    25    26   ar
     9    26    27   ar
    10    27    30    1
    11    30    31    1
    12    30    32    1
    13    30    33    1
    14    27    28   ar
    15    28    29   ar
    16     4     5   ar
    17     5     6   ar
    18     6     7   ar
    19     7     8    1
    20     8     9   ar
    21     9    10   ar
    22    10    11   ar
    23    11    14    1
    24    14    15    1
    25    15    16    1
    26    16    17    1
    27    17    18    1
    28    18    19    1
    29    19    20    1
    30    20    21    1
    31    11    12   ar
    32    12    13   ar
    33     7     2   ar
    34    13     8   ar
    35    29    24   ar
    36    21    17    1
@<TRIPOS>MOLECULE
*****
 33 36 0 0 0
SMALL
GASTEIGER

@<TRIPOS>ATOM
      1 O         139.8352  141.3576  161.4663 O.2     1  UNL1       -0.2665
      2 C         139.5545  140.1796  162.3514 C.ar    1  UNL1        0.2679
      3 C         138.8356  140.3743  163.6535 C.ar    1  UNL1        0.0980
      4 C         138.5549  139.1964  164.5387 C.ar    1  UNL1        0.1453
      5 C         138.9929  137.8237  164.1218 C.ar    1  UNL1        0.0561
      6 C         139.7117  137.6290  162.8198 C.ar    1  UNL1        0.0860
      7 N         139.9925  138.8069  161.9346 N.ar    1  UNL1       -0.2729
      8 C         140.7113  138.6122  160.6325 C.ar    1  UNL1        0.0671
      9 C         139.9396  138.5847  159.3465 C.ar    1  UNL1        0.0207
     10 C         140.6584  138.3900  158.0445 C.ar    1  UNL1        0.0384
     11 C         142.1490  138.2227  158.0283 C.ar    1  UNL1        0.1387
     12 C         142.9207  138.2501  159.3143 C.ar    1  UNL1        0.0384
     13 C         142.2019  138.4449  160.6164 C.ar    1  UNL1        0.0207
     14 O         142.8677  138.0279  156.7263 O.3     1  UNL1       -0.4740
     15 C         143.3145  136.6566  156.3140 C.3     1  UNL1        0.2226
     16 C         142.6103  135.4456  156.8502 C.3     1  UNL1        0.1200
     17 N         142.6617  134.1516  156.0932 N.3     1  UNL1       -0.2696
     18 C         141.5063  133.4851  155.4069 C.3     1  UNL1        0.0722
     19 C         142.0081  132.2185  154.7792 C.3     1  UNL1        0.0188
     20 C         143.4735  132.1021  155.0777 C.3     1  UNL1        0.0188
     21 C         143.8775  133.2969  155.8898 C.3     1  UNL1        0.0722
     22 O         137.8360  139.3911  165.8408 O.3     1  UNL1       -0.4704
     23 C         138.5085  139.0254  167.1307 C.3     1  UNL1        0.2320
     24 C         139.3519  140.0361  167.8497 C.ar    1  UNL1        0.0211
     25 C         139.1984  140.2244  169.3299 C.ar    1  UNL1       -0.0007
     26 C         140.0419  141.2352  170.0489 C.ar    1  UNL1        0.0036
     27 C         141.0389  142.0577  169.2876 C.ar    1  UNL1        0.0714
     28 C         141.1924  141.8695  167.8075 C.ar    1  UNL1        0.0036
     29 C         140.3490  140.8587  167.0885 C.ar    1  UNL1       -0.0007
     30 C         141.8823  143.0685  170.0066 C.3     1  UNL1        0.4186
     31 F         142.7257  144.0793  170.7256 F       1  UNL1       -0.1659
     32 F         142.9094  142.0119  170.2870 F       1  UNL1       -0.1659
     33 F         140.8552  144.1250  169.7262 F       1  UNL1       -0.1659
@<TRIPOS>BOND
     1     1     2    2
     2     2     3   ar
     3     3     4   ar
     4     4    22    1
     5    22    23    1
     6    23    24    1
     7    24    25   ar
     8    25    26   ar
     9    26    27   ar
    10    27    30    1
    11    30    31    1
    12    30    32    1
    13    30    33    1
    14    27    28   ar
    15    28    29   ar
    16     4     5   ar
    17     5     6   ar
    18     6     7   ar
    19     7     8    1
    20     8     9   ar
    21     9    10   ar
    22    10    11   ar
    23    11    14    1
    24    14    15    1
    25    15    16    1
    26    16    17    1
    27    17    18    1
    28    18    19    1
    29    19    20    1
    30    20    21    1
    31    11    12   ar
    32    12    13   ar
    33     7     2   ar
    34    13     8   ar
    35    29    24   ar
    36    21    17    1
@<TRIPOS>MOLECULE
*****
 33 36 0 0 0
SMALL
GASTEIGER

@<TRIPOS>ATOM
      1 O         139.5410  137.7391  162.0677 O.2     1  UNL1       -0.2665
      2 C         139.1979  139.1644  161.7498 C.ar    1  UNL1        0.2679
      3 C         138.2938  139.9395  162.6619 C.ar    1  UNL1        0.0980
      4 C         137.9507  141.3647  162.3441 C.ar    1  UNL1        0.1453
      5 C         138.5116  142.0148  161.1142 C.ar    1  UNL1        0.0561
      6 C         139.4157  141.2397  160.2021 C.ar    1  UNL1        0.0860
      7 N         139.7588  139.8145  160.5199 N.ar    1  UNL1       -0.2729
      8 C         140.6629  139.0393  159.6078 C.ar    1  UNL1        0.0671
      9 C         140.1569  138.5615  158.2790 C.ar    1  UNL1        0.0207
     10 C         141.0609  137.7865  157.3669 C.ar    1  UNL1        0.0384
     11 C         142.4709  137.4892  157.7836 C.ar    1  UNL1        0.1387
     12 C         142.9769  137.9670  159.1124 C.ar    1  UNL1        0.0384
     13 C         142.0728  138.7421  160.0245 C.ar    1  UNL1        0.0207
     14 O         143.3749  136.7141  156.8714 O.3     1  UNL1       -0.4740
     15 C         142.7913  135.8631  155.7827 C.3     1  UNL1        0.2226
     16 C         142.4547  134.4266  156.0527 C.3     1  UNL1        0.1200
     17 N         143.5217  133.4811  156.5192 N.3     1  UNL1       -0.2696
     18 C         144.1981  133.5061  157.8579 C.3     1  UNL1        0.0722
     19 C         145.1941  132.3851  157.8949 C.3     1  UNL1        0.0188
     20 C         145.1333  131.6673  156.5792 C.3     1  UNL1        0.0188
     21 C         144.0997  132.3446  155.7290 C.3     1  UNL1        0.0722
     22 O         137.0466  142.1398  163.2562 O.3     1  UNL1       -0.4704
     23 C         137.6070  142.8098  164.4756 C.3     1  UNL1        0.2320
     24 C         139.0919  142.9343  164.6474 C.ar    1  UNL1        0.0211
     25 C         139.8423  141.9135  165.4504 C.ar    1  UNL1       -0.0007
     26 C         141.3272  142.0380  165.6221 C.ar    1  UNL1        0.0036
     27 C         142.0618  143.1834  164.9909 C.ar    1  UNL1        0.0714
     28 C         141.3114  144.2043  164.1879 C.ar    1  UNL1        0.0036
     29 C         139.8265  144.0798  164.0161 C.ar    1  UNL1       -0.0007
     30 C         143.5467  143.3079  165.1626 C.3     1  UNL1        0.4186
     31 F         145.0316  143.4324  165.3344 F       1  UNL1       -0.1659
     32 F         143.5560  144.4829  164.2303 F       1  UNL1       -0.1659
     33 F         143.5374  142.1330  166.0950 F       1  UNL1       -0.1659
@<TRIPOS>BOND
     1     1     2    2
     2     2     3   ar
     3     3     4   ar
     4     4    22    1
     5    22    23    1
     6    23    24    1
     7    24    25   ar
     8    25    26   ar
     9    26    27   ar
    10    27    30    1
    11    30    31    1
    12    30    32    1
    13    30    33    1
    14    27    28   ar
    15    28    29   ar
    16     4     5   ar
    17     5     6   ar
    18     6     7   ar
    19     7     8    1
    20     8     9   ar
    21     9    10   ar
    22    10    11   ar
    23    11    14    1
    24    14    15    1
    25    15    16    1
    26    16    17    1
    27    17    18    1
    28    18    19    1
    29    19    20    1
    30    20    21    1
    31    11    12   ar
    32    12    13   ar
    33     7     2   ar
    34    13     8   ar
    35    29    24   ar
    36    21    17    1
@<TRIPOS>MOLECULE
*****
 33 36 0 0 0
SMALL
GASTEIGER

@<TRIPOS>ATOM
      1 O         144.3238  139.7345  161.6672 O.2     1  UNL1       -0.2665
      2 C         143.4573  139.0151  162.6579 C.ar    1  UNL1        0.2679
      3 C         143.7797  139.0783  164.1214 C.ar    1  UNL1        0.0980
      4 C         142.9131  138.3589  165.1121 C.ar    1  UNL1        0.1453
      5 C         141.7241  137.5762  164.6392 C.ar    1  UNL1        0.0561
      6 C         141.4016  137.5130  163.1757 C.ar    1  UNL1        0.0860
      7 N         142.2682  138.2324  162.1850 N.ar    1  UNL1       -0.2729
      8 C         141.9457  138.1692  160.7214 C.ar    1  UNL1        0.0671
      9 C         140.6094  138.6378  160.2269 C.ar    1  UNL1        0.0207
     10 C         140.2868  138.5745  158.7634 C.ar    1  UNL1        0.0384
     11 C         141.3008  138.0427  157.7942 C.ar    1  UNL1        0.1387
     12 C         142.6371  137.5741  158.2887 C.ar    1  UNL1        0.0384
     13 C         142.9596  137.6373  159.7523 C.ar    1  UNL1        0.0207
     14 O         140.9782  137.9795  156.3307 O.3     1  UNL1       -0.4740
     15 C         141.7044  137.0119  155.4438 C.3     1  UNL1        0.2226
     16 C         141.1234  135.6543  155.1807 C.3     1  UNL1        0.1200
     17 N         141.7971  134.4312  155.7282 N.3     1  UNL1       -0.2696
     18 C         141.4209  133.0097  155.4313 C.3     1  UNL1        0.0722
     19 C         142.3567  132.1147  156.1885 C.3     1  UNL1        0.0188
     20 C         143.3113  132.9830  156.9533 C.3     1  UNL1        0.0188
     21 C         142.9654  134.4146  156.6689 C.3     1  UNL1        0.0722
     22 O         143.2356  138.4221  166.5757 O.3     1  UNL1       -0.4704
     23 C         142.6402  139.5027  167.4288 C.3     1  UNL1        0.2320
     24 C         141.8620  140.6166  166.7935 C.ar    1  UNL1        0.0211
     25 C         142.5744  141.8362  166.2885 C.ar    1  UNL1       -0.0007
     26 C         141.7962  142.9502  165.6532 C.ar    1  UNL1        0.0036
     27 C         140.3056  142.8444  165.5229 C.ar    1  UNL1        0.0714
     28 C         139.5932  141.6248  166.0279 C.ar    1  UNL1        0.0036
     29 C         140.3714  140.5109  166.6632 C.ar    1  UNL1       -0.0007
     30 C         139.5274  143.9583  164.8877 C.3     1  UNL1        0.4186
     31 F         138.7493  145.0723  164.2523 F       1  UNL1       -0.1659
     32 F         138.2647  143.1633  165.0404 F       1  UNL1       -0.1659
     33 F         140.7902  144.7533  164.7349 F       1  UNL1       -0.1659
@<TRIPOS>BOND
     1     1     2    2
     2     2     3   ar
     3     3     4   ar
     4     4    22    1
     5    22    23    1
     6    23    24    1
     7    24    25   ar
     8    25    26   ar
     9    26    27   ar
    10    27    30    1
    11    30    31    1
    12    30    32    1
    13    30    33    1
    14    27    28   ar
    15    28    29   ar
    16     4     5   ar
    17     5     6   ar
    18     6     7   ar
    19     7     8    1
    20     8     9   ar
    21     9    10   ar
    22    10    11   ar
    23    11    14    1
    24    14    15    1
    25    15    16    1
    26    16    17    1
    27    17    18    1
    28    18    19    1
    29    19    20    1
    30    20    21    1
    31    11    12   ar
    32    12    13   ar
    33     7     2   ar
    34    13     8   ar
    35    29    24   ar
    36    21    17    1
@<TRIPOS>MOLECULE
*****
 33 36 0 0 0
SMALL
GASTEIGER

@<TRIPOS>ATOM
      1 O         141.0753  136.7915  162.9428 O.2     1  UNL1       -0.2665
      2 C         140.2505  138.0146  163.2146 C.ar    1  UNL1        0.2679
      3 C         139.4001  138.0868  164.4481 C.ar    1  UNL1        0.0980
      4 C         138.5753  139.3099  164.7199 C.ar    1  UNL1        0.1453
      5 C         138.6010  140.4607  163.7583 C.ar    1  UNL1        0.0561
      6 C         139.4515  140.3885  162.5248 C.ar    1  UNL1        0.0860
      7 N         140.2762  139.1655  162.2530 N.ar    1  UNL1       -0.2729
      8 C         141.1267  139.0933  161.0195 C.ar    1  UNL1        0.0671
      9 C         140.5199  138.6730  159.7137 C.ar    1  UNL1        0.0207
     10 C         141.3703  138.6008  158.4802 C.ar    1  UNL1        0.0384
     11 C         142.8276  138.9490  158.5524 C.ar    1  UNL1        0.1387
     12 C         143.4344  139.3693  159.8582 C.ar    1  UNL1        0.0384
     13 C         142.5839  139.4414  161.0918 C.ar    1  UNL1        0.0207
     14 O         143.6780  138.8768  157.3189 O.3     1  UNL1       -0.4740
     15 C         143.1021  139.2585  155.9875 C.3     1  UNL1        0.2226
     16 C         142.6897  138.1931  155.0155 C.3     1  UNL1        0.1200
     17 N         142.8040  136.7465  155.3952 N.3     1  UNL1       -0.2696
     18 C         141.6717  135.8481  155.7964 C.3     1  UNL1        0.0722
     19 C         142.2387  134.4906  156.0894 C.3     1  UNL1        0.0188
     20 C         143.7213  134.5500  155.8694 C.3     1  UNL1        0.0188
     21 C         144.0707  135.9443  155.4403 C.3     1  UNL1        0.0722
     22 O         137.7248  139.3820  165.9535 O.3     1  UNL1       -0.4704
     23 C         138.2884  138.9622  167.2786 C.3     1  UNL1        0.2320
     24 C         139.2651  139.8485  167.9931 C.ar    1  UNL1        0.0211
     25 C         140.5409  140.2562  167.3178 C.ar    1  UNL1       -0.0007
     26 C         141.5176  141.1426  168.0323 C.ar    1  UNL1        0.0036
     27 C         141.2183  141.6213  169.4220 C.ar    1  UNL1        0.0714
     28 C         139.9425  141.2137  170.0973 C.ar    1  UNL1        0.0036
     29 C         138.9658  140.3273  169.3828 C.ar    1  UNL1       -0.0007
     30 C         142.1950  142.5077  170.1365 C.3     1  UNL1        0.4186
     31 F         143.1717  143.3942  170.8509 F       1  UNL1       -0.1659
     32 F         141.5336  142.1833  171.4431 F       1  UNL1       -0.1659
     33 F         142.8564  142.8321  168.8299 F       1  UNL1       -0.1659
@<TRIPOS>BOND
     1     1     2    2
     2     2     3   ar
     3     3     4   ar
     4     4    22    1
     5    22    23    1
     6    23    24    1
     7    24    25   ar
     8    25    26   ar
     9    26    27   ar
    10    27    30    1
    11    30    31    1
    12    30    32    1
    13    30    33    1
    14    27    28   ar
    15    28    29   ar
    16     4     5   ar
    17     5     6   ar
    18     6     7   ar
    19     7     8    1
    20     8     9   ar
    21     9    10   ar
    22    10    11   ar
    23    11    14    1
    24    14    15    1
    25    15    16    1
    26    16    17    1
    27    17    18    1
    28    18    19    1
    29    19    20    1
    30    20    21    1
    31    11    12   ar
    32    12    13   ar
    33     7     2   ar
    34    13     8   ar
    35    29    24   ar
    36    21    17    1
@<TRIPOS>MOLECULE
*****
 33 36 0 0 0
SMALL
GASTEIGER

@<TRIPOS>ATOM
      1 O         140.1982  141.6983  158.7456 O.2     1  UNL1       -0.2665
      2 C         139.4645  140.8607  159.7507 C.ar    1  UNL1        0.2679
      3 C         138.5792  141.5154  160.7693 C.ar    1  UNL1        0.0980
      4 C         137.8454  140.6779  161.7743 C.ar    1  UNL1        0.1453
      5 C         137.9970  139.1856  161.7608 C.ar    1  UNL1        0.0561
      6 C         138.8823  138.5310  160.7422 C.ar    1  UNL1        0.0860
      7 N         139.6160  139.3685  159.7371 N.ar    1  UNL1       -0.2729
      8 C         140.5014  138.7138  158.7184 C.ar    1  UNL1        0.0671
      9 C         141.9923  138.7720  158.8724 C.ar    1  UNL1        0.0207
     10 C         142.8776  138.1173  157.8539 C.ar    1  UNL1        0.0384
     11 C         142.2720  137.4043  156.6812 C.ar    1  UNL1        0.1387
     12 C         140.7811  137.3461  156.5272 C.ar    1  UNL1        0.0384
     13 C         139.8957  138.0009  157.5459 C.ar    1  UNL1        0.0207
     14 O         143.1573  136.7496  155.6627 O.3     1  UNL1       -0.4740
     15 C         143.6695  135.3594  155.8970 C.3     1  UNL1        0.2226
     16 C         143.3201  134.6348  157.1630 C.3     1  UNL1        0.1200
     17 N         143.6982  133.1929  157.3307 N.3     1  UNL1       -0.2696
     18 C         144.9456  132.6790  157.9865 C.3     1  UNL1        0.0722
     19 C         144.9135  131.1803  157.9332 C.3     1  UNL1        0.0188
     20 C         143.6464  130.7679  157.2444 C.3     1  UNL1        0.0188
     21 C         142.8953  132.0118  156.8721 C.3     1  UNL1        0.0722
     22 O         136.9601  141.3326  162.7930 O.3     1  UNL1       -0.4704
     23 C         137.5567  142.2173  163.8472 C.3     1  UNL1        0.2320
     24 C         138.4691  141.6358  164.8860 C.ar    1  UNL1        0.0211
     25 C         138.2591  140.2306  165.3669 C.ar    1  UNL1       -0.0007
     26 C         139.1716  139.6491  166.4058 C.ar    1  UNL1        0.0036
     27 C         140.2941  140.4728  166.9637 C.ar    1  UNL1        0.0714
     28 C         140.5042  141.8780  166.4829 C.ar    1  UNL1        0.0036
     29 C         139.5918  142.4595  165.4440 C.ar    1  UNL1       -0.0007
     30 C         141.2066  139.8913  168.0025 C.3     1  UNL1        0.4186
     31 F         142.1191  139.3097  169.0415 F       1  UNL1       -0.1659
     32 F         142.3809  140.1155  167.0966 F       1  UNL1       -0.1659
     33 F         140.0323  139.6670  168.9085 F       1  UNL1       -0.1659
@<TRIPOS>BOND
     1     1     2    2
     2     2     3   ar
     3     3     4   ar
     4     4    22    1
     5    22    23    1
     6    23    24    1
     7    24    25   ar
     8    25    26   ar
     9    26    27   ar
    10    27    30    1
    11    30    31    1
    12    30    32    1
    13    30    33    1
    14    27    28   ar
    15    28    29   ar
    16     4     5   ar
    17     5     6   ar
    18     6     7   ar
    19     7     8    1
    20     8     9   ar
    21     9    10   ar
    22    10    11   ar
    23    11    14    1
    24    14    15    1
    25    15    16    1
    26    16    17    1
    27    17    18    1
    28    18    19    1
    29    19    20    1
    30    20    21    1
    31    11    12   ar
    32    12    13   ar
    33     7     2   ar
    34    13     8   ar
    35    29    24   ar
    36    21    17    1
@<TRIPOS>MOLECULE
*****
 33 36 0 0 0
SMALL
GASTEIGER

@<TRIPOS>ATOM
      1 O         142.9874  144.6434  161.9731 O.2     1  UNL1       -0.2665
      2 C         143.4105  143.2113  161.8313 C.ar    1  UNL1        0.2679
      3 C         144.1596  142.5371  162.9423 C.ar    1  UNL1        0.0980
      4 C         144.5827  141.1051  162.8005 C.ar    1  UNL1        0.1453
      5 C         144.2567  140.3471  161.5479 C.ar    1  UNL1        0.0561
      6 C         143.5076  141.0213  160.4369 C.ar    1  UNL1        0.0860
      7 N         143.0844  142.4534  160.5787 N.ar    1  UNL1       -0.2729
      8 C         142.3352  143.1276  159.4677 C.ar    1  UNL1        0.0671
      9 C         143.0752  143.6440  158.2694 C.ar    1  UNL1        0.0207
     10 C         142.3261  144.3181  157.1585 C.ar    1  UNL1        0.0384
     11 C         140.8369  144.4759  157.2457 C.ar    1  UNL1        0.1387
     12 C         140.0970  143.9595  158.4439 C.ar    1  UNL1        0.0384
     13 C         140.8462  143.2854  159.5549 C.ar    1  UNL1        0.0207
     14 O         140.0878  145.1501  156.1347 O.3     1  UNL1       -0.4740
     15 C         140.1580  146.6403  155.9791 C.3     1  UNL1        0.2226
     16 C         138.8962  147.4414  155.8529 C.3     1  UNL1        0.1200
     17 N         138.9590  148.8769  155.4220 N.3     1  UNL1       -0.2696
     18 C         139.6864  149.4061  154.2216 C.3     1  UNL1        0.0722
     19 C         139.4824  150.8914  154.1736 C.3     1  UNL1        0.0188
     20 C         138.6291  151.2802  155.3444 C.3     1  UNL1        0.0188
     21 C         138.3056  150.0351  156.1159 C.3     1  UNL1        0.0722
     22 O         145.3319  140.4309  163.9115 O.3     1  UNL1       -0.4704
     23 C         144.7685  139.1997  164.5570 C.3     1  UNL1        0.2320
     24 C         143.3185  139.1491  164.9376 C.ar    1  UNL1        0.0211
     25 C         142.3439  138.3968  164.0807 C.ar    1  UNL1       -0.0007
     26 C         140.8938  138.3462  164.4614 C.ar    1  UNL1        0.0036
     27 C         140.4184  139.0479  165.6990 C.ar    1  UNL1        0.0714
     28 C         141.3930  139.8002  166.5559 C.ar    1  UNL1        0.0036
     29 C         142.8430  139.8508  166.1752 C.ar    1  UNL1       -0.0007
     30 C         138.9685  138.9973  166.0796 C.3     1  UNL1        0.4186
     31 F         137.5184  138.9468  166.4603 F       1  UNL1       -0.1659
     32 F         138.9035  137.5642  165.6417 F       1  UNL1       -0.1659
     33 F         139.0334  140.4305  166.5176 F       1  UNL1       -0.1659
@<TRIPOS>BOND
     1     1     2    2
     2     2     3   ar
     3     3     4   ar
     4     4    22    1
     5    22    23    1
     6    23    24    1
     7    24    25   ar
     8    25    26   ar
     9    26    27   ar
    10    27    30    1
    11    30    31    1
    12    30    32    1
    13    30    33    1
    14    27    28   ar
    15    28    29   ar
    16     4     5   ar
    17     5     6   ar
    18     6     7   ar
    19     7     8    1
    20     8     9   ar
    21     9    10   ar
    22    10    11   ar
    23    11    14    1
    24    14    15    1
    25    15    16    1
    26    16    17    1
    27    17    18    1
    28    18    19    1
    29    19    20    1
    30    20    21    1
    31    11    12   ar
    32    12    13   ar
    33     7     2   ar
    34    13     8   ar
    35    29    24   ar
    36    21    17    1
