@<TRIPOS>MOLECULE
*****
 19 22 0 0 0
SMALL
GASTEIGER

@<TRIPOS>ATOM
      1 CL        137.2530  139.9008  160.4088 Cl      1  UNL1       -0.0806
      2 C         137.7953  139.4375  161.7284 C.ar    1  UNL1        0.0785
      3 C         138.2270  138.0116  161.9029 C.ar    1  UNL1        0.1135
      4 N         138.7693  137.5484  163.2225 N.ar    1  UNL1       -0.2076
      5 C         138.8799  138.5110  164.3675 C.ar    1  UNL1        0.2507
      6 O         139.3718  138.3445  165.7747 O.2     1  UNL1       -0.4056
      7 C         139.2442  139.6676  166.4699 C.ar    1  UNL1        0.2936
      8 N         138.6734  140.6517  165.4924 N.ar    1  UNL1       -0.1929
      9 C         138.4483  139.9368  164.1930 C.ar    1  UNL1        0.1400
     10 C         137.9060  140.4001  162.8734 C.ar    1  UNL1        0.0370
     11 N         139.7971  140.0904  168.5570 N.pl3   1  UNL1       -0.2637
     12 C         139.1161  140.2131  169.1207 C.3     1  UNL1        0.1123
     13 C         139.0898  140.3756  169.9105 C.3     1  UNL1        0.0939
     14 N         139.8718  140.5629  170.8620 N.3     1  UNL1       -0.2711
     15 C         140.1602  140.4050  170.1072 C.3     1  UNL1        0.0738
     16 C         140.7122  140.1504  168.8947 C.3     1  UNL1        0.0372
     17 C         141.0927  139.9998  168.1802 C.3     1  UNL1        0.0798
     18 C         141.9740  140.2352  169.3709 C.3     1  UNL1        0.0372
     19 C         141.3636  140.5167  170.7118 C.3     1  UNL1        0.0738
@<TRIPOS>BOND
     1     1     2    1
     2     2     3   ar
     3     3     4   ar
     4     4     5   ar
     5     5     6   ar
     6     6     7   ar
     7     7    11    1
     8    11    12    1
     9    12    13    1
    10    13    14    1
    11    14    15    1
    12    15    16    1
    13    16    17    1
    14    17    18    1
    15    18    19    1
    16     7     8   ar
    17     8     9   ar
    18     9    10   ar
    19    10     2   ar
    20     9     5   ar
    21    17    11    1
    22    19    14    1
@<TRIPOS>MOLECULE
*****
 19 22 0 0 0
SMALL
GASTEIGER

@<TRIPOS>ATOM
      1 CL        137.6693  138.7382  161.5769 Cl      1  UNL1       -0.0806
      2 C         138.4045  138.8622  162.8785 C.ar    1  UNL1        0.0785
      3 C         139.0084  137.6469  163.5175 C.ar    1  UNL1        0.1135
      4 N         139.7436  137.7709  164.8191 N.ar    1  UNL1       -0.2076
      5 C         139.8750  139.1102  165.4816 C.ar    1  UNL1        0.2507
      6 O         140.5374  139.5382  166.7575 O.2     1  UNL1       -0.4056
      7 C         140.3429  141.0180  166.9071 C.ar    1  UNL1        0.2936
      8 N         139.5603  141.5046  165.7236 N.ar    1  UNL1       -0.1929
      9 C         139.2711  140.3255  164.8426 C.ar    1  UNL1        0.1400
     10 C         138.5359  140.2015  163.5410 C.ar    1  UNL1        0.0370
     11 N         141.0767  142.2571  168.5703 N.pl3   1  UNL1       -0.2637
     12 C         140.4950  142.8495  168.8978 C.3     1  UNL1        0.1123
     13 C         140.5514  143.3915  169.4927 C.3     1  UNL1        0.0939
     14 N         141.3838  143.7920  170.3287 N.3     1  UNL1       -0.2711
     15 C         141.5771  143.1923  169.7988 C.3     1  UNL1        0.0738
     16 C         141.9710  142.2014  168.9605 C.3     1  UNL1        0.0372
     17 C         142.2550  141.6004  168.4747 C.3     1  UNL1        0.0798
     18 C         143.2052  142.1317  169.5065 C.3     1  UNL1        0.0372
     19 C         142.7696  143.2275  170.4335 C.3     1  UNL1        0.0738
@<TRIPOS>BOND
     1     1     2    1
     2     2     3   ar
     3     3     4   ar
     4     4     5   ar
     5     5     6   ar
     6     6     7   ar
     7     7    11    1
     8    11    12    1
     9    12    13    1
    10    13    14    1
    11    14    15    1
    12    15    16    1
    13    16    17    1
    14    17    18    1
    15    18    19    1
    16     7     8   ar
    17     8     9   ar
    18     9    10   ar
    19    10     2   ar
    20     9     5   ar
    21    17    11    1
    22    19    14    1
@<TRIPOS>MOLECULE
*****
 19 22 0 0 0
SMALL
GASTEIGER

@<TRIPOS>ATOM
      1 CL        143.6917  137.6997  161.4066 Cl      1  UNL1       -0.0806
      2 C         142.6498  138.0924  162.4117 C.ar    1  UNL1        0.0785
      3 C         141.2065  137.7706  162.1605 C.ar    1  UNL1        0.1135
      4 N         140.1646  138.1633  163.1656 N.ar    1  UNL1       -0.2076
      5 C         140.5660  138.8777  164.4220 C.ar    1  UNL1        0.2507
      6 O         139.7684  139.3861  165.5861 O.2     1  UNL1       -0.4056
      7 C         140.7188  140.0221  166.5568 C.ar    1  UNL1        0.2936
      8 N         142.1038  139.9067  165.9926 N.ar    1  UNL1       -0.1929
      9 C         142.0094  139.1994  164.6732 C.ar    1  UNL1        0.1400
     10 C         143.0513  138.8068  163.6681 C.ar    1  UNL1        0.0370
     11 N         140.1765  140.9596  168.4719 N.pl3   1  UNL1       -0.2637
     12 C         139.7763  140.4257  169.0647 C.3     1  UNL1        0.1123
     13 C         139.4991  140.5572  169.8108 C.3     1  UNL1        0.0939
     14 N         139.4138  141.4869  170.6357 N.3     1  UNL1       -0.2711
     15 C         139.7591  141.6108  169.8986 C.3     1  UNL1        0.0738
     16 C         140.3410  141.8938  168.7066 C.3     1  UNL1        0.0372
     17 C         140.7008  142.1130  167.9992 C.3     1  UNL1        0.0798
     18 C         140.5642  143.1842  169.0402 C.3     1  UNL1        0.0372
     19 C         139.9208  142.8712  170.3585 C.3     1  UNL1        0.0738
@<TRIPOS>BOND
     1     1     2    1
     2     2     3   ar
     3     3     4   ar
     4     4     5   ar
     5     5     6   ar
     6     6     7   ar
     7     7    11    1
     8    11    12    1
     9    12    13    1
    10    13    14    1
    11    14    15    1
    12    15    16    1
    13    16    17    1
    14    17    18    1
    15    18    19    1
    16     7     8   ar
    17     8     9   ar
    18     9    10   ar
    19    10     2   ar
    20     9     5   ar
    21    17    11    1
    22    19    14    1
@<TRIPOS>MOLECULE
*****
 19 22 0 0 0
SMALL
GASTEIGER

@<TRIPOS>ATOM
      1 CL        139.5080  146.1451  161.8576 Cl      1  UNL1       -0.0806
      2 C         139.2985  144.9498  162.7393 C.ar    1  UNL1        0.0785
      3 C         138.2446  143.9396  162.3953 C.ar    1  UNL1        0.1135
      4 N         138.0351  142.7443  163.2770 N.ar    1  UNL1       -0.2076
      5 C         138.8796  142.5593  164.5028 C.ar    1  UNL1        0.2507
      6 O         138.9026  141.4892  165.5537 O.2     1  UNL1       -0.4056
      7 C         139.9708  141.8381  166.5472 C.ar    1  UNL1        0.2936
      8 N         140.6080  143.1239  166.1104 N.ar    1  UNL1       -0.1929
      9 C         139.9335  143.5696  164.8468 C.ar    1  UNL1        0.1400
     10 C         140.1430  144.7648  163.9651 C.ar    1  UNL1        0.0370
     11 N         140.5085  140.6693  168.3319 N.pl3   1  UNL1       -0.2637
     12 C         139.8873  140.6314  168.9716 C.3     1  UNL1        0.1123
     13 C         139.8733  140.2679  169.6916 C.3     1  UNL1        0.0939
     14 N         140.6077  139.5577  170.4046 N.3     1  UNL1       -0.2711
     15 C         140.8640  139.8171  169.6665 C.3     1  UNL1        0.0738
     16 C         141.3577  140.2040  168.4639 C.3     1  UNL1        0.0372
     17 C         141.6996  140.4134  167.7448 C.3     1  UNL1        0.0798
     18 C         142.5287  139.5573  168.6555 C.3     1  UNL1        0.0372
     19 C         141.9828  139.1294  169.9854 C.3     1  UNL1        0.0738
@<TRIPOS>BOND
     1     1     2    1
     2     2     3   ar
     3     3     4   ar
     4     4     5   ar
     5     5     6   ar
     6     6     7   ar
     7     7    11    1
     8    11    12    1
     9    12    13    1
    10    13    14    1
    11    14    15    1
    12    15    16    1
    13    16    17    1
    14    17    18    1
    15    18    19    1
    16     7     8   ar
    17     8     9   ar
    18     9    10   ar
    19    10     2   ar
    20     9     5   ar
    21    17    11    1
    22    19    14    1
@<TRIPOS>MOLECULE
*****
 19 22 0 0 0
SMALL
GASTEIGER

@<TRIPOS>ATOM
      1 CL        142.6035  138.6059  169.9637 Cl      1  UNL1       -0.0806
      2 C         141.9471  139.8255  169.3878 C.ar    1  UNL1        0.0785
      3 C         141.4203  140.8945  170.2986 C.ar    1  UNL1        0.1135
      4 N         140.7639  142.1142  169.7227 N.ar    1  UNL1       -0.2076
      5 C         140.6343  142.2648  168.2359 C.ar    1  UNL1        0.2507
      6 O         140.0400  143.3475  167.3848 O.2     1  UNL1       -0.4056
      7 C         140.1994  142.9476  165.9479 C.ar    1  UNL1        0.2936
      8 N         140.8923  141.6178  165.9110 N.ar    1  UNL1       -0.1929
      9 C         141.1611  141.1958  167.3251 C.ar    1  UNL1        0.1400
     10 C         141.8175  139.9761  167.9010 C.ar    1  UNL1        0.0370
     11 N         139.5338  144.1079  164.2012 N.pl3   1  UNL1       -0.2637
     12 C         138.6720  144.0229  163.9854 C.3     1  UNL1        0.1123
     13 C         138.2266  144.3489  163.3971 C.3     1  UNL1        0.0939
     14 N         138.3585  145.1322  162.4373 N.3     1  UNL1       -0.2711
     15 C         139.0003  144.9469  162.9185 C.3     1  UNL1        0.0738
     16 C         140.1043  144.6918  163.6640 C.3     1  UNL1        0.0372
     17 C         140.8003  144.5680  164.0862 C.3     1  UNL1        0.0798
     18 C         140.8853  145.5015  162.9153 C.3     1  UNL1        0.0372
     19 C         139.6645  145.7836  162.0908 C.3     1  UNL1        0.0738
@<TRIPOS>BOND
     1     1     2    1
     2     2     3   ar
     3     3     4   ar
     4     4     5   ar
     5     5     6   ar
     6     6     7   ar
     7     7    11    1
     8    11    12    1
     9    12    13    1
    10    13    14    1
    11    14    15    1
    12    15    16    1
    13    16    17    1
    14    17    18    1
    15    18    19    1
    16     7     8   ar
    17     8     9   ar
    18     9    10   ar
    19    10     2   ar
    20     9     5   ar
    21    17    11    1
    22    19    14    1
@<TRIPOS>MOLECULE
*****
 19 22 0 0 0
SMALL
GASTEIGER

@<TRIPOS>ATOM
      1 CL        142.2601  142.5373  171.0991 Cl      1  UNL1       -0.0806
      2 C         141.3692  141.7353  170.1974 C.ar    1  UNL1        0.0785
      3 C         140.4623  140.6898  170.7756 C.ar    1  UNL1        0.1135
      4 N         139.5713  139.8879  169.8739 N.ar    1  UNL1       -0.2076
      5 C         139.5873  140.1314  168.3939 C.ar    1  UNL1        0.2507
      6 O         138.8266  139.5018  167.2648 O.2     1  UNL1       -0.4056
      7 C         139.2633  140.1581  165.9887 C.ar    1  UNL1        0.2936
      8 N         140.2940  141.1935  166.3291 N.ar    1  UNL1       -0.1929
      9 C         140.4941  141.1769  167.8157 C.ar    1  UNL1        0.1400
     10 C         141.3851  141.9789  168.7174 C.ar    1  UNL1        0.0370
     11 N         138.5224  139.6853  163.9719 N.pl3   1  UNL1       -0.2637
     12 C         138.0848  140.3427  163.5561 C.3     1  UNL1        0.1123
     13 C         137.7370  140.3866  162.8295 C.3     1  UNL1        0.0939
     14 N         137.5508  139.6698  161.8277 N.3     1  UNL1       -0.2711
     15 C         137.9584  139.3791  162.4812 C.3     1  UNL1        0.0738
     16 C         138.6386  138.8281  163.5173 C.3     1  UNL1        0.0372
     17 C         139.0552  138.4511  164.1191 C.3     1  UNL1        0.0798
     18 C         138.7943  137.6463  162.8806 C.3     1  UNL1        0.0372
     19 C         138.0421  138.2556  161.7349 C.3     1  UNL1        0.0738
@<TRIPOS>BOND
     1     1     2    1
     2     2     3   ar
     3     3     4   ar
     4     4     5   ar
     5     5     6   ar
     6     6     7   ar
     7     7    11    1
     8    11    12    1
     9    12    13    1
    10    13    14    1
    11    14    15    1
    12    15    16    1
    13    16    17    1
    14    17    18    1
    15    18    19    1
    16     7     8   ar
    17     8     9   ar
    18     9    10   ar
    19    10     2   ar
    20     9     5   ar
    21    17    11    1
    22    19    14    1
@<TRIPOS>MOLECULE
*****
 19 22 0 0 0
SMALL
GASTEIGER

@<TRIPOS>ATOM
      1 CL        143.8372  137.9672  161.5781 Cl      1  UNL1       -0.0806
      2 C         143.6479  138.8839  162.7502 C.ar    1  UNL1        0.0785
      3 C         144.5862  140.0350  162.9612 C.ar    1  UNL1        0.1135
      4 N         144.3970  140.9517  164.1333 N.ar    1  UNL1       -0.2076
      5 C         143.2695  140.7174  165.0944 C.ar    1  UNL1        0.2507
      6 O         142.8363  141.4478  166.3309 O.2     1  UNL1       -0.4056
      7 C         141.6303  140.7481  166.8841 C.ar    1  UNL1        0.2936
      8 N         141.3181  139.5852  165.9895 N.ar    1  UNL1       -0.1929
      9 C         142.3312  139.5663  164.8833 C.ar    1  UNL1        0.1400
     10 C         142.5204  138.6496  163.7112 C.ar    1  UNL1        0.0370
     11 N         140.5153  141.3259  168.6904 N.pl3   1  UNL1       -0.2637
     12 C         140.0189  140.6834  169.0611 C.3     1  UNL1        0.1123
     13 C         139.5416  140.6755  169.7114 C.3     1  UNL1        0.0939
     14 N         139.1578  141.4487  170.6098 N.3     1  UNL1       -0.2711
     15 C         139.6759  141.7093  170.0254 C.3     1  UNL1        0.0738
     16 C         140.5290  142.2134  169.0993 C.3     1  UNL1        0.0372
     17 C         141.0447  142.5636  168.5614 C.3     1  UNL1        0.0798
     18 C         140.5415  143.4374  169.6718 C.3     1  UNL1        0.0372
     19 C         139.5981  142.8800  170.6960 C.3     1  UNL1        0.0738
@<TRIPOS>BOND
     1     1     2    1
     2     2     3   ar
     3     3     4   ar
     4     4     5   ar
     5     5     6   ar
     6     6     7   ar
     7     7    11    1
     8    11    12    1
     9    12    13    1
    10    13    14    1
    11    14    15    1
    12    15    16    1
    13    16    17    1
    14    17    18    1
    15    18    19    1
    16     7     8   ar
    17     8     9   ar
    18     9    10   ar
    19    10     2   ar
    20     9     5   ar
    21    17    11    1
    22    19    14    1
@<TRIPOS>MOLECULE
*****
 19 22 0 0 0
SMALL
GASTEIGER

@<TRIPOS>ATOM
      1 CL        138.2435  140.1618  170.2463 Cl      1  UNL1       -0.0806
      2 C         139.4520  140.7567  169.5863 C.ar    1  UNL1        0.0785
      3 C         140.3095  141.7347  170.3333 C.ar    1  UNL1        0.1135
      4 N         141.5180  142.3296  169.6732 N.ar    1  UNL1       -0.2076
      5 C         141.8690  141.9464  168.2661 C.ar    1  UNL1        0.2507
      6 O         142.9902  142.3648  167.3619 O.2     1  UNL1       -0.4056
      7 C         142.8257  141.6453  166.0560 C.ar    1  UNL1        0.2936
      8 N         141.6028  140.7822  166.1532 N.ar    1  UNL1       -0.1929
      9 C         141.0115  140.9683  167.5191 C.ar    1  UNL1        0.1400
     10 C         139.8030  140.3735  168.1792 C.ar    1  UNL1        0.0370
     11 N         144.1463  141.8245  164.3056 N.pl3   1  UNL1       -0.2637
     12 C         144.9121  141.3682  164.3499 C.3     1  UNL1        0.1123
     13 C         145.5279  141.2929  163.8342 C.3     1  UNL1        0.0939
     14 N         145.8689  141.6967  162.7060 N.3     1  UNL1       -0.2711
     15 C         145.1507  141.9287  163.0350 C.3     1  UNL1        0.0738
     16 C         143.9533  142.3554  163.5081 C.3     1  UNL1        0.0372
     17 C         143.2205  142.6404  163.7524 C.3     1  UNL1        0.0798
     18 C         143.6951  143.0866  162.4013 C.3     1  UNL1        0.0372
     19 C         145.0193  142.6148  161.8782 C.3     1  UNL1        0.0738
@<TRIPOS>BOND
     1     1     2    1
     2     2     3   ar
     3     3     4   ar
     4     4     5   ar
     5     5     6   ar
     6     6     7   ar
     7     7    11    1
     8    11    12    1
     9    12    13    1
    10    13    14    1
    11    14    15    1
    12    15    16    1
    13    16    17    1
    14    17    18    1
    15    18    19    1
    16     7     8   ar
    17     8     9   ar
    18     9    10   ar
    19    10     2   ar
    20     9     5   ar
    21    17    11    1
    22    19    14    1
@<TRIPOS>MOLECULE
*****
 19 22 0 0 0
SMALL
GASTEIGER

@<TRIPOS>ATOM
      1 CL        139.4637  138.3647  160.2498 Cl      1  UNL1       -0.0806
      2 C         139.4333  138.8000  161.6849 C.ar    1  UNL1        0.0785
      3 C         138.1320  139.1827  162.3252 C.ar    1  UNL1        0.1135
      4 N         138.1016  139.6181  163.7603 N.ar    1  UNL1       -0.2076
      5 C         139.3726  139.6708  164.5551 C.ar    1  UNL1        0.2507
      6 O         139.6517  140.0570  165.9774 O.2     1  UNL1       -0.4056
      7 C         141.1256  139.9130  166.2161 C.ar    1  UNL1        0.2936
      8 N         141.7574  139.4378  164.9414 N.ar    1  UNL1       -0.1929
      9 C         140.6739  139.2881  163.9148 C.ar    1  UNL1        0.1400
     10 C         140.7043  138.8527  162.4797 C.ar    1  UNL1        0.0370
     11 N         142.1761  140.3263  168.1044 N.pl3   1  UNL1       -0.2637
     12 C         142.2095  139.6494  168.6851 C.3     1  UNL1        0.1123
     13 C         142.5360  139.5820  169.4198 C.3     1  UNL1        0.0939
     14 N         143.1748  140.2738  170.2356 N.3     1  UNL1       -0.2711
     15 C         142.9421  140.5880  169.5111 C.3     1  UNL1        0.0738
     16 C         142.5951  141.1773  168.3397 C.3     1  UNL1        0.0372
     17 C         142.4073  141.5769  167.6448 C.3     1  UNL1        0.0798
     18 C         143.1773  142.3501  168.6740 C.3     1  UNL1        0.0372
     19 C         143.5610  141.6985  169.9694 C.3     1  UNL1        0.0738
@<TRIPOS>BOND
     1     1     2    1
     2     2     3   ar
     3     3     4   ar
     4     4     5   ar
     5     5     6   ar
     6     6     7   ar
     7     7    11    1
     8    11    12    1
     9    12    13    1
    10    13    14    1
    11    14    15    1
    12    15    16    1
    13    16    17    1
    14    17    18    1
    15    18    19    1
    16     7     8   ar
    17     8     9   ar
    18     9    10   ar
    19    10     2   ar
    20     9     5   ar
    21    17    11    1
    22    19    14    1
