@<TRIPOS>MOLECULE
*****
 34 37 0 0 0
SMALL
GASTEIGER

@<TRIPOS>ATOM
      1 N         142.2299  137.1666  158.0802 N.ar    1  UNL1       -0.2286
      2 C         142.9943  137.0060  159.3608 C.ar    1  UNL1        0.0990
      3 C         142.4081  137.9467  160.3715 C.ar    1  UNL1        0.0338
      4 C         141.2815  138.6886  159.7155 C.ar    1  UNL1        0.0981
      5 N         141.1713  138.2065  158.2994 N.ar    1  UNL1       -0.1680
      6 C         140.6953  139.6293  160.7262 C.3     1  UNL1        0.1414
      7 N         141.4597  139.4688  162.0069 N.am    1  UNL1       -0.2660
      8 C         141.2094  140.2167  163.2827 C.2     1  UNL1        0.2525
      9 O         142.0600  139.9483  164.4888 O.2     1  UNL1       -0.2698
     10 C         142.5182  138.4288  161.7876 C.3     1  UNL1        0.1236
     11 C         143.8341  132.8824  155.6161 C.3     1  UNL1        0.0521
     12 C         143.2823  134.2764  155.5722 C.ar    1  UNL1        0.0609
     13 C         143.0320  135.0245  156.8481 C.ar    1  UNL1        0.0339
     14 C         142.4801  136.4186  156.8043 C.ar    1  UNL1        0.0855
     15 C         142.1785  137.0647  155.4846 C.ar    1  UNL1        0.0398
     16 C         142.4288  136.3166  154.2087 C.ar    1  UNL1        0.1000
     17 N         142.9807  134.9225  154.2525 N.ar    1  UNL1       -0.2480
     18 C         140.1086  141.2333  163.3526 C.ar    1  UNL1        0.0888
     19 C         140.3346  142.6207  162.8292 C.ar    1  UNL1        0.0259
     20 C         139.2338  143.6373  162.8991 C.ar    1  UNL1        0.1061
     21 C         137.9070  143.2664  163.4924 C.ar    1  UNL1        0.0215
     22 C         137.6809  141.8790  164.0158 C.ar    1  UNL1        0.0384
     23 C         138.7817  140.8624  163.9459 C.ar    1  UNL1        0.1432
     24 S         139.4600  145.0247  162.3757 S.O2    1  UNL1        0.0105
     25 C         139.6863  146.4121  161.8523 C.3     1  UNL1        0.1816
     26 O         140.9426  144.8038  162.4312 O.2     1  UNL1       -0.1686
     27 O         137.9774  145.2456  162.3202 O.2     1  UNL1       -0.1686
     28 O         138.5557  139.4750  164.4693 O.3     1  UNL1       -0.4702
     29 C         138.6331  139.2076  165.9432 C.3     1  UNL1        0.2599
     30 C         139.3542  140.1671  166.8427 C.3     1  UNL1        0.0566
     31 C         137.9894  137.9805  166.5176 C.3     1  UNL1        0.4340
     32 F         137.3457  136.7535  167.0921 F       1  UNL1       -0.1664
     33 F         138.5459  137.1612  165.3911 F       1  UNL1       -0.1664
     34 F         137.4329  138.7999  167.6442 F       1  UNL1       -0.1664
@<TRIPOS>BOND
     1    11    12    1
     2    12    13   ar
     3    13    14   ar
     4    14     1    1
     5     1     2   ar
     6     2     3   ar
     7     3     4   ar
     8     4     5   ar
     9     4     6    1
    10     6     7    1
    11     7     8   am
    12     8     9    2
    13     8    18    1
    14    18    19   ar
    15    19    20   ar
    16    20    24    1
    17    24    25    1
    18    24    26    2
    19    24    27    2
    20    20    21   ar
    21    21    22   ar
    22    22    23   ar
    23    23    28    1
    24    28    29    1
    25    29    30    1
    26    29    31    1
    27    31    32    1
    28    31    33    1
    29    31    34    1
    30     7    10    1
    31    14    15   ar
    32    15    16   ar
    33    16    17   ar
    34    17    12   ar
    35     5     1   ar
    36    23    18   ar
    37    10     3    1
@<TRIPOS>MOLECULE
*****
 34 37 0 0 0
SMALL
GASTEIGER

@<TRIPOS>ATOM
      1 N         142.9507  141.6692  159.7446 N.ar    1  UNL1       -0.2286
      2 C         141.6667  142.4445  159.7523 C.ar    1  UNL1        0.0990
      3 C         141.0662  142.3330  161.1223 C.ar    1  UNL1        0.0338
      4 C         141.9791  141.4888  161.9613 C.ar    1  UNL1        0.0981
      5 N         143.1439  141.0785  161.1098 N.ar    1  UNL1       -0.1680
      6 C         141.3787  141.3774  163.3314 C.3     1  UNL1        0.1414
      7 N         140.0946  142.1527  163.3391 N.am    1  UNL1       -0.2660
      8 C         139.1666  142.3099  164.5070 C.2     1  UNL1        0.2525
      9 O         137.9119  143.1195  164.3645 O.2     1  UNL1       -0.2698
     10 C         139.9015  142.7433  161.9738 C.3     1  UNL1        0.1236
     11 C         144.4171  139.0928  155.4770 C.3     1  UNL1        0.0521
     12 C         144.6120  140.2238  156.4428 C.ar    1  UNL1        0.0609
     13 C         143.6840  140.3810  157.6108 C.ar    1  UNL1        0.0339
     14 C         143.8788  141.5120  158.5766 C.ar    1  UNL1        0.0855
     15 C         145.0016  142.4859  158.3745 C.ar    1  UNL1        0.0398
     16 C         145.9296  142.3286  157.2066 C.ar    1  UNL1        0.1000
     17 N         145.7348  141.1976  156.2407 N.ar    1  UNL1       -0.2480
     18 C         139.4932  141.6574  165.8176 C.ar    1  UNL1        0.0888
     19 C         140.3345  142.3812  166.8267 C.ar    1  UNL1        0.0259
     20 C         140.6611  141.7287  168.1373 C.ar    1  UNL1        0.1061
     21 C         140.1465  140.3524  168.4388 C.ar    1  UNL1        0.0215
     22 C         139.3051  139.6285  167.4297 C.ar    1  UNL1        0.0384
     23 C         138.9785  140.2810  166.1191 C.ar    1  UNL1        0.1432
     24 S         141.5024  142.4526  169.1463 S.O2    1  UNL1        0.0105
     25 C         142.3436  143.1766  170.1553 C.3     1  UNL1        0.1816
     26 O         140.4649  143.5322  169.2367 O.2     1  UNL1       -0.1686
     27 O         142.5399  141.3731  169.0560 O.2     1  UNL1       -0.1686
     28 O         138.1372  139.5572  165.1100 O.3     1  UNL1       -0.4702
     29 C         138.7904  138.7124  164.0566 C.3     1  UNL1        0.2599
     30 C         138.4304  138.9027  162.6129 C.3     1  UNL1        0.0566
     31 C         139.8035  137.6774  164.4468 C.3     1  UNL1        0.4340
     32 F         140.8166  136.6424  164.8370 F       1  UNL1       -0.1664
     33 F         138.8160  137.0697  165.3984 F       1  UNL1       -0.1664
     34 F         140.7910  138.2851  163.4951 F       1  UNL1       -0.1664
@<TRIPOS>BOND
     1    11    12    1
     2    12    13   ar
     3    13    14   ar
     4    14     1    1
     5     1     2   ar
     6     2     3   ar
     7     3     4   ar
     8     4     5   ar
     9     4     6    1
    10     6     7    1
    11     7     8   am
    12     8     9    2
    13     8    18    1
    14    18    19   ar
    15    19    20   ar
    16    20    24    1
    17    24    25    1
    18    24    26    2
    19    24    27    2
    20    20    21   ar
    21    21    22   ar
    22    22    23   ar
    23    23    28    1
    24    28    29    1
    25    29    30    1
    26    29    31    1
    27    31    32    1
    28    31    33    1
    29    31    34    1
    30     7    10    1
    31    14    15   ar
    32    15    16   ar
    33    16    17   ar
    34    17    12   ar
    35     5     1   ar
    36    23    18   ar
    37    10     3    1
@<TRIPOS>MOLECULE
*****
 34 37 0 0 0
SMALL
GASTEIGER

@<TRIPOS>ATOM
      1 N         140.6308  141.5923  166.8169 N.ar    1  UNL1       -0.2286
      2 C         139.6308  140.4748  166.7841 C.ar    1  UNL1        0.0990
      3 C         139.4158  140.0871  165.3511 C.ar    1  UNL1        0.0338
      4 C         140.2830  140.9650  164.4983 C.ar    1  UNL1        0.0981
      5 N         141.0339  141.8953  165.4042 N.ar    1  UNL1       -0.1680
      6 C         140.0680  140.5773  163.0653 C.3     1  UNL1        0.1414
      7 N         139.0679  139.4597  163.0324 N.am    1  UNL1       -0.2660
      8 C         138.5602  138.7668  161.8029 C.2     1  UNL1        0.2525
      9 O         137.5553  137.6600  161.9266 O.2     1  UNL1       -0.2698
     10 C         138.6649  139.1568  164.4452 C.3     1  UNL1        0.1236
     11 C         144.4773  142.5558  170.1748 C.3     1  UNL1        0.0521
     12 C         143.0619  142.7670  169.7255 C.ar    1  UNL1        0.0609
     13 C         142.5540  142.0741  168.4959 C.ar    1  UNL1        0.0339
     14 C         141.1386  142.2853  168.0465 C.ar    1  UNL1        0.0855
     15 C         140.2310  143.1894  168.8267 C.ar    1  UNL1        0.0398
     16 C         140.7389  143.8823  170.0564 C.ar    1  UNL1        0.1000
     17 N         142.1543  143.6711  170.5058 N.ar    1  UNL1       -0.2480
     18 C         139.0572  139.1806  160.4495 C.ar    1  UNL1        0.0888
     19 C         138.2758  140.1667  159.6328 C.ar    1  UNL1        0.0259
     20 C         138.7729  140.5806  158.2793 C.ar    1  UNL1        0.1061
     21 C         140.0513  140.0083  157.7426 C.ar    1  UNL1        0.0215
     22 C         140.8328  139.0222  158.5593 C.ar    1  UNL1        0.0384
     23 C         140.3357  138.6084  159.9127 C.ar    1  UNL1        0.1432
     24 S         137.9914  141.5667  157.4627 S.O2    1  UNL1        0.0105
     25 C         137.2098  142.5527  156.6460 C.3     1  UNL1        0.1816
     26 O         137.2459  140.4383  156.8137 O.2     1  UNL1       -0.1686
     27 O         138.7369  142.6950  158.1116 O.2     1  UNL1       -0.1686
     28 O         141.1171  137.6223  160.7294 O.3     1  UNL1       -0.4702
     29 C         142.2913  138.0839  161.5408 C.3     1  UNL1        0.2599
     30 C         143.4995  138.6509  160.8563 C.3     1  UNL1        0.0566
     31 C         142.2572  137.9784  163.0367 C.3     1  UNL1        0.4340
     32 F         142.2231  137.8730  164.5325 F       1  UNL1       -0.1664
     33 F         141.1610  136.9591  162.9398 F       1  UNL1       -0.1664
     34 F         143.3534  138.9978  163.1335 F       1  UNL1       -0.1664
@<TRIPOS>BOND
     1    11    12    1
     2    12    13   ar
     3    13    14   ar
     4    14     1    1
     5     1     2   ar
     6     2     3   ar
     7     3     4   ar
     8     4     5   ar
     9     4     6    1
    10     6     7    1
    11     7     8   am
    12     8     9    2
    13     8    18    1
    14    18    19   ar
    15    19    20   ar
    16    20    24    1
    17    24    25    1
    18    24    26    2
    19    24    27    2
    20    20    21   ar
    21    21    22   ar
    22    22    23   ar
    23    23    28    1
    24    28    29    1
    25    29    30    1
    26    29    31    1
    27    31    32    1
    28    31    33    1
    29    31    34    1
    30     7    10    1
    31    14    15   ar
    32    15    16   ar
    33    16    17   ar
    34    17    12   ar
    35     5     1   ar
    36    23    18   ar
    37    10     3    1
@<TRIPOS>MOLECULE
*****
 34 37 0 0 0
SMALL
GASTEIGER

@<TRIPOS>ATOM
      1 N         139.1437  142.1399  160.1025 N.ar    1  UNL1       -0.2286
      2 C         138.3811  140.8984  160.4591 C.ar    1  UNL1        0.0990
      3 C         138.7643  140.5039  161.8546 C.ar    1  UNL1        0.0338
      4 C         139.7636  141.5015  162.3606 C.ar    1  UNL1        0.0981
      5 N         139.9981  142.5127  161.2777 N.ar    1  UNL1       -0.1680
      6 C         140.1468  141.1070  163.7561 C.3     1  UNL1        0.1414
      7 N         139.3842  139.8654  164.1127 N.am    1  UNL1       -0.2660
      8 C         139.4623  139.1265  165.4156 C.2     1  UNL1        0.2525
      9 O         138.6359  137.8929  165.6290 O.2     1  UNL1       -0.2698
     10 C         138.5298  139.4927  162.9375 C.3     1  UNL1        0.1236
     11 C         140.8029  145.9507  156.9841 C.3     1  UNL1        0.0521
     12 C         139.8952  144.7844  157.2403 C.ar    1  UNL1        0.0609
     13 C         139.9733  144.0453  158.5433 C.ar    1  UNL1        0.0339
     14 C         139.0656  142.8789  158.7995 C.ar    1  UNL1        0.0855
     15 C         138.0798  142.4516  157.7529 C.ar    1  UNL1        0.0398
     16 C         138.0017  143.1907  156.4499 C.ar    1  UNL1        0.1000
     17 N         138.9094  144.3571  156.1936 N.ar    1  UNL1       -0.2480
     18 C         140.3668  139.6209  166.5052 C.ar    1  UNL1        0.0888
     19 C         139.8437  140.5724  167.5402 C.ar    1  UNL1        0.0259
     20 C         140.7482  141.0669  168.6299 C.ar    1  UNL1        0.1061
     21 C         142.1758  140.6099  168.6846 C.ar    1  UNL1        0.0215
     22 C         142.6990  139.6585  167.6497 C.ar    1  UNL1        0.0384
     23 C         141.7945  139.1640  166.5601 C.ar    1  UNL1        0.1432
     24 S         140.2249  142.0183  169.6647 S.O2    1  UNL1        0.0105
     25 C         139.7017  142.9698  170.6996 C.3     1  UNL1        0.1816
     26 O         141.1372  143.0883  169.1422 O.2     1  UNL1       -0.1686
     27 O         139.3127  140.9484  170.1873 O.2     1  UNL1       -0.1686
     28 O         142.3177  138.2126  165.5251 O.3     1  UNL1       -0.4702
     29 C         142.9808  138.7408  164.2877 C.3     1  UNL1        0.2599
     30 C         142.4755  138.3356  162.9348 C.3     1  UNL1        0.0566
     31 C         144.1494  139.6741  164.4032 C.3     1  UNL1        0.4340
     32 F         145.3178  140.6075  164.5187 F       1  UNL1       -0.1664
     33 F         144.8582  138.6790  165.2735 F       1  UNL1       -0.1664
     34 F         143.4405  140.6693  163.5329 F       1  UNL1       -0.1664
@<TRIPOS>BOND
     1    11    12    1
     2    12    13   ar
     3    13    14   ar
     4    14     1    1
     5     1     2   ar
     6     2     3   ar
     7     3     4   ar
     8     4     5   ar
     9     4     6    1
    10     6     7    1
    11     7     8   am
    12     8     9    2
    13     8    18    1
    14    18    19   ar
    15    19    20   ar
    16    20    24    1
    17    24    25    1
    18    24    26    2
    19    24    27    2
    20    20    21   ar
    21    21    22   ar
    22    22    23   ar
    23    23    28    1
    24    28    29    1
    25    29    30    1
    26    29    31    1
    27    31    32    1
    28    31    33    1
    29    31    34    1
    30     7    10    1
    31    14    15   ar
    32    15    16   ar
    33    16    17   ar
    34    17    12   ar
    35     5     1   ar
    36    23    18   ar
    37    10     3    1
@<TRIPOS>MOLECULE
*****
 34 37 0 0 0
SMALL
GASTEIGER

@<TRIPOS>ATOM
      1 N         141.1756  137.7314  157.7383 N.ar    1  UNL1       -0.2286
      2 C         139.7676  138.2483  157.7606 C.ar    1  UNL1        0.0990
      3 C         139.6003  139.0841  158.9949 C.ar    1  UNL1        0.0338
      4 C         140.9047  139.0838  159.7354 C.ar    1  UNL1        0.0981
      5 N         141.8784  138.2477  158.9588 N.ar    1  UNL1       -0.1680
      6 C         140.7374  139.9196  160.9697 C.3     1  UNL1        0.1414
      7 N         139.3294  140.4365  160.9920 N.am    1  UNL1       -0.2660
      8 C         138.7295  141.3154  162.0491 C.2     1  UNL1        0.2525
      9 O         137.2998  141.7552  161.9365 O.2     1  UNL1       -0.2698
     10 C         138.6266  139.9201  159.7715 C.3     1  UNL1        0.1236
     11 C         140.8038  135.3091  153.1564 C.3     1  UNL1        0.0521
     12 C         141.5896  135.6413  154.3901 C.ar    1  UNL1        0.0609
     13 C         140.9897  136.5202  155.4474 C.ar    1  UNL1        0.0339
     14 C         141.7755  136.8525  156.6812 C.ar    1  UNL1        0.0855
     15 C         143.1611  136.3058  156.8578 C.ar    1  UNL1        0.0398
     16 C         143.7609  135.4268  155.8005 C.ar    1  UNL1        0.1000
     17 N         142.9752  135.0946  154.5667 N.ar    1  UNL1       -0.2480
     18 C         139.5593  141.7546  163.2190 C.ar    1  UNL1        0.0888
     19 C         140.6724  142.7404  163.0211 C.ar    1  UNL1        0.0259
     20 C         141.5022  143.1796  164.1910 C.ar    1  UNL1        0.1061
     21 C         141.2189  142.6330  165.5588 C.ar    1  UNL1        0.0215
     22 C         140.1058  141.6472  165.7568 C.ar    1  UNL1        0.0384
     23 C         139.2760  141.2080  164.5869 C.ar    1  UNL1        0.1432
     24 S         142.6153  144.1654  163.9929 S.O2    1  UNL1        0.0105
     25 C         143.7284  145.1511  163.7949 C.3     1  UNL1        0.1816
     26 O         143.6204  143.0830  164.2542 O.2     1  UNL1       -0.1686
     27 O         141.6102  145.2479  163.7317 O.2     1  UNL1       -0.1686
     28 O         138.1629  140.2222  164.7848 O.3     1  UNL1       -0.4702
     29 C         138.4769  138.7907  165.1046 C.3     1  UNL1        0.2599
     30 C         138.0472  138.2036  166.4164 C.3     1  UNL1        0.0566
     31 C         139.2205  137.9463  164.1127 C.3     1  UNL1        0.4340
     32 F         139.9641  137.1019  163.1207 F       1  UNL1       -0.1664
     33 F         140.2682  137.6552  165.1459 F       1  UNL1       -0.1664
     34 F         138.1727  138.2374  163.0794 F       1  UNL1       -0.1664
@<TRIPOS>BOND
     1    11    12    1
     2    12    13   ar
     3    13    14   ar
     4    14     1    1
     5     1     2   ar
     6     2     3   ar
     7     3     4   ar
     8     4     5   ar
     9     4     6    1
    10     6     7    1
    11     7     8   am
    12     8     9    2
    13     8    18    1
    14    18    19   ar
    15    19    20   ar
    16    20    24    1
    17    24    25    1
    18    24    26    2
    19    24    27    2
    20    20    21   ar
    21    21    22   ar
    22    22    23   ar
    23    23    28    1
    24    28    29    1
    25    29    30    1
    26    29    31    1
    27    31    32    1
    28    31    33    1
    29    31    34    1
    30     7    10    1
    31    14    15   ar
    32    15    16   ar
    33    16    17   ar
    34    17    12   ar
    35     5     1   ar
    36    23    18   ar
    37    10     3    1
@<TRIPOS>MOLECULE
*****
 34 37 0 0 0
SMALL
GASTEIGER

@<TRIPOS>ATOM
      1 N         142.0446  138.3120  158.8414 N.ar    1  UNL1       -0.2286
      2 C         140.5645  138.2919  159.0839 C.ar    1  UNL1        0.0990
      3 C         140.3055  138.9192  160.4216 C.ar    1  UNL1        0.0338
      4 C         141.6255  139.3269  161.0058 C.ar    1  UNL1        0.0981
      5 N         142.7004  138.9516  160.0292 N.ar    1  UNL1       -0.1680
      6 C         141.3665  139.9541  162.3436 C.3     1  UNL1        0.1414
      7 N         139.8863  139.9340  162.5861 N.am    1  UNL1       -0.2660
      8 C         139.1851  140.4610  163.8028 C.2     1  UNL1        0.2525
      9 O         137.6912  140.3715  163.9053 O.2     1  UNL1       -0.2698
     10 C         139.2306  139.2944  161.3983 C.3     1  UNL1        0.1236
     11 C         143.7346  134.2989  156.0061 C.3     1  UNL1        0.0521
     12 C         143.5909  135.7784  156.2070 C.ar    1  UNL1        0.0609
     13 C         142.8896  136.3055  157.4237 C.ar    1  UNL1        0.0339
     14 C         142.7459  137.7850  157.6246 C.ar    1  UNL1        0.0855
     15 C         143.3035  138.7375  156.6088 C.ar    1  UNL1        0.0398
     16 C         144.0048  138.2104  155.3921 C.ar    1  UNL1        0.1000
     17 N         144.1485  136.7309  155.1912 N.ar    1  UNL1       -0.2480
     18 C         139.9776  141.0776  164.9171 C.ar    1  UNL1        0.0888
     19 C         140.1917  140.3198  166.1938 C.ar    1  UNL1        0.0259
     20 C         140.9843  140.9364  167.3082 C.ar    1  UNL1        0.1061
     21 C         141.5626  142.3108  167.1459 C.ar    1  UNL1        0.0215
     22 C         141.3485  143.0687  165.8692 C.ar    1  UNL1        0.0384
     23 C         140.5560  142.4521  164.7549 C.ar    1  UNL1        0.1432
     24 S         141.1983  140.1784  168.5847 S.O2    1  UNL1        0.0105
     25 C         141.4125  139.4205  169.8613 C.3     1  UNL1        0.1816
     26 O         142.6462  140.5705  168.5746 O.2     1  UNL1       -0.1686
     27 O         139.7505  139.7864  168.5949 O.2     1  UNL1       -0.1686
     28 O         140.3419  143.2100  163.4783 O.3     1  UNL1       -0.4702
     29 C         139.4134  144.3878  163.4519 C.3     1  UNL1        0.2599
     30 C         139.6768  145.5298  162.5158 C.3     1  UNL1        0.0566
     31 C         138.2213  144.4235  164.3618 C.3     1  UNL1        0.4340
     32 F         137.0294  144.4594  165.2716 F       1  UNL1       -0.1664
     33 F         137.4723  143.5327  163.4155 F       1  UNL1       -0.1664
     34 F         138.9704  145.3144  165.3081 F       1  UNL1       -0.1664
@<TRIPOS>BOND
     1    11    12    1
     2    12    13   ar
     3    13    14   ar
     4    14     1    1
     5     1     2   ar
     6     2     3   ar
     7     3     4   ar
     8     4     5   ar
     9     4     6    1
    10     6     7    1
    11     7     8   am
    12     8     9    2
    13     8    18    1
    14    18    19   ar
    15    19    20   ar
    16    20    24    1
    17    24    25    1
    18    24    26    2
    19    24    27    2
    20    20    21   ar
    21    21    22   ar
    22    22    23   ar
    23    23    28    1
    24    28    29    1
    25    29    30    1
    26    29    31    1
    27    31    32    1
    28    31    33    1
    29    31    34    1
    30     7    10    1
    31    14    15   ar
    32    15    16   ar
    33    16    17   ar
    34    17    12   ar
    35     5     1   ar
    36    23    18   ar
    37    10     3    1
@<TRIPOS>MOLECULE
*****
 34 37 0 0 0
SMALL
GASTEIGER

@<TRIPOS>ATOM
      1 N         142.7688  141.9646  159.6736 N.ar    1  UNL1       -0.2286
      2 C         141.5227  142.7942  159.7677 C.ar    1  UNL1        0.0990
      3 C         140.9709  142.6462  161.1546 C.ar    1  UNL1        0.0338
      4 C         141.8760  141.7250  161.9177 C.ar    1  UNL1        0.0981
      5 N         142.9872  141.3037  161.0024 N.ar    1  UNL1       -0.1680
      6 C         141.3241  141.5769  163.3046 C.3     1  UNL1        0.1414
      7 N         140.0780  142.4066  163.3988 N.am    1  UNL1       -0.2660
      8 C         139.2037  142.5502  164.6090 C.2     1  UNL1        0.2525
      9 O         137.9827  143.4198  164.5534 O.2     1  UNL1       -0.2698
     10 C         139.8597  143.0674  162.0699 C.3     1  UNL1        0.1236
     11 C         147.2562  142.9016  157.2272 C.3     1  UNL1        0.0521
     12 C         145.8869  142.2894  157.2400 C.ar    1  UNL1        0.0609
     13 C         145.0125  142.4330  158.4504 C.ar    1  UNL1        0.0339
     14 C         143.6432  141.8209  158.4633 C.ar    1  UNL1        0.0855
     15 C         143.1482  141.0651  157.2659 C.ar    1  UNL1        0.0398
     16 C         144.0226  140.9215  156.0556 C.ar    1  UNL1        0.1000
     17 N         145.3919  141.5337  156.0426 N.ar    1  UNL1       -0.2480
     18 C         139.5503  141.8243  165.8751 C.ar    1  UNL1        0.0888
     19 C         140.4204  142.4838  166.9036 C.ar    1  UNL1        0.0259
     20 C         140.7671  141.7579  168.1697 C.ar    1  UNL1        0.1061
     21 C         140.2436  140.3725  168.4072 C.ar    1  UNL1        0.0215
     22 C         139.3735  139.7128  167.3787 C.ar    1  UNL1        0.0384
     23 C         139.0269  140.4388  166.1126 C.ar    1  UNL1        0.1432
     24 S         141.6372  142.4175  169.1982 S.O2    1  UNL1        0.0105
     25 C         142.5074  143.0771  170.2266 C.3     1  UNL1        0.1816
     26 O         142.6600  141.3335  169.0280 O.2     1  UNL1       -0.1686
     27 O         140.6144  143.5015  169.3684 O.2     1  UNL1       -0.1686
     28 O         138.1568  139.7792  165.0841 O.3     1  UNL1       -0.4702
     29 C         138.7722  138.9139  164.0246 C.3     1  UNL1        0.2599
     30 C         140.0054  138.1167  164.3302 C.3     1  UNL1        0.0566
     31 C         138.1543  138.8459  162.6595 C.3     1  UNL1        0.4340
     32 F         137.5365  138.7777  161.2943 F       1  UNL1       -0.1664
     33 F         137.6249  140.2390  162.8296 F       1  UNL1       -0.1664
     34 F         138.6837  137.4527  162.4893 F       1  UNL1       -0.1664
@<TRIPOS>BOND
     1    11    12    1
     2    12    13   ar
     3    13    14   ar
     4    14     1    1
     5     1     2   ar
     6     2     3   ar
     7     3     4   ar
     8     4     5   ar
     9     4     6    1
    10     6     7    1
    11     7     8   am
    12     8     9    2
    13     8    18    1
    14    18    19   ar
    15    19    20   ar
    16    20    24    1
    17    24    25    1
    18    24    26    2
    19    24    27    2
    20    20    21   ar
    21    21    22   ar
    22    22    23   ar
    23    23    28    1
    24    28    29    1
    25    29    30    1
    26    29    31    1
    27    31    32    1
    28    31    33    1
    29    31    34    1
    30     7    10    1
    31    14    15   ar
    32    15    16   ar
    33    16    17   ar
    34    17    12   ar
    35     5     1   ar
    36    23    18   ar
    37    10     3    1
@<TRIPOS>MOLECULE
*****
 34 37 0 0 0
SMALL
GASTEIGER

@<TRIPOS>ATOM
      1 N         141.1347  137.5194  157.2728 N.ar    1  UNL1       -0.2286
      2 C         139.7596  138.1171  157.3150 C.ar    1  UNL1        0.0990
      3 C         139.6431  138.9233  158.5745 C.ar    1  UNL1        0.0338
      4 C         140.9462  138.8238  159.3107 C.ar    1  UNL1        0.0981
      5 N         141.8681  137.9562  158.5062 N.ar    1  UNL1       -0.1680
      6 C         140.8297  139.6300  160.5703 C.3     1  UNL1        0.1414
      7 N         139.4546  140.2278  160.6125 N.am    1  UNL1       -0.2660
      8 C         138.9087  141.1078  161.6976 C.2     1  UNL1        0.2525
      9 O         137.5071  141.6340  161.6027 O.2     1  UNL1       -0.2698
     10 C         138.7212  139.7910  159.3790 C.3     1  UNL1        0.1236
     11 C         143.7731  133.2883  155.8112 C.3     1  UNL1        0.0521
     12 C         142.9999  134.5237  155.4568 C.ar    1  UNL1        0.0609
     13 C         142.4539  135.4038  156.5419 C.ar    1  UNL1        0.0339
     14 C         141.6806  136.6393  156.1876 C.ar    1  UNL1        0.0855
     15 C         141.4532  136.9948  154.7482 C.ar    1  UNL1        0.0398
     16 C         141.9992  136.1147  153.6631 C.ar    1  UNL1        0.1000
     17 N         142.7725  134.8792  154.0174 N.ar    1  UNL1       -0.2480
     18 C         139.7642  141.4617  162.8778 C.ar    1  UNL1        0.0888
     19 C         140.8006  142.5393  162.7566 C.ar    1  UNL1        0.0259
     20 C         141.6562  142.8932  163.9368 C.ar    1  UNL1        0.1061
     21 C         141.4754  142.1696  165.2381 C.ar    1  UNL1        0.0215
     22 C         140.4390  141.0919  165.3594 C.ar    1  UNL1        0.0384
     23 C         139.5835  140.7380  164.1792 C.ar    1  UNL1        0.1432
     24 S         142.6926  143.9708  163.8154 S.O2    1  UNL1        0.0105
     25 C         143.7288  145.0485  163.6941 C.3     1  UNL1        0.1816
     26 O         141.6404  145.0106  164.0645 O.2     1  UNL1       -0.1686
     27 O         143.7447  142.9311  163.5663 O.2     1  UNL1       -0.1686
     28 O         138.5471  139.6604  164.3004 O.3     1  UNL1       -0.4702
     29 C         138.8160  138.4533  165.1493 C.3     1  UNL1        0.2599
     30 C         139.9657  137.5472  164.8219 C.3     1  UNL1        0.0566
     31 C         137.9352  138.1522  166.3255 C.3     1  UNL1        0.4340
     32 F         137.0544  137.8513  167.5017 F       1  UNL1       -0.1664
     33 F         138.1163  136.6828  166.0850 F       1  UNL1       -0.1664
     34 F         137.7541  139.6218  166.5660 F       1  UNL1       -0.1664
@<TRIPOS>BOND
     1    11    12    1
     2    12    13   ar
     3    13    14   ar
     4    14     1    1
     5     1     2   ar
     6     2     3   ar
     7     3     4   ar
     8     4     5   ar
     9     4     6    1
    10     6     7    1
    11     7     8   am
    12     8     9    2
    13     8    18    1
    14    18    19   ar
    15    19    20   ar
    16    20    24    1
    17    24    25    1
    18    24    26    2
    19    24    27    2
    20    20    21   ar
    21    21    22   ar
    22    22    23   ar
    23    23    28    1
    24    28    29    1
    25    29    30    1
    26    29    31    1
    27    31    32    1
    28    31    33    1
    29    31    34    1
    30     7    10    1
    31    14    15   ar
    32    15    16   ar
    33    16    17   ar
    34    17    12   ar
    35     5     1   ar
    36    23    18   ar
    37    10     3    1
@<TRIPOS>MOLECULE
*****
 34 37 0 0 0
SMALL
GASTEIGER

@<TRIPOS>ATOM
      1 N         139.8415  142.8623  159.3687 N.ar    1  UNL1       -0.2286
      2 C         139.2769  141.4734  159.3242 C.ar    1  UNL1        0.0990
      3 C         139.5989  140.8003  160.6255 C.ar    1  UNL1        0.0338
      4 C         140.3625  141.7733  161.4742 C.ar    1  UNL1        0.0981
      5 N         140.5125  143.0477  160.6974 N.ar    1  UNL1       -0.1680
      6 C         140.6845  141.1003  162.7755 C.3     1  UNL1        0.1414
      7 N         140.1198  139.7113  162.7311 N.am    1  UNL1       -0.2660
      8 C         140.2102  138.6875  163.8235 C.2     1  UNL1        0.2525
      9 O         139.5941  137.3329  163.6349 O.2     1  UNL1       -0.2698
     10 C         139.4489  139.5259  161.4023 C.3     1  UNL1        0.1236
     11 C         138.0886  144.3168  154.6983 C.3     1  UNL1        0.0521
     12 C         138.8747  144.6134  155.9409 C.ar    1  UNL1        0.0609
     13 C         138.9651  143.5896  157.0335 C.ar    1  UNL1        0.0339
     14 C         139.7511  143.8862  158.2762 C.ar    1  UNL1        0.0855
     15 C         140.4468  145.2066  158.4263 C.ar    1  UNL1        0.0398
     16 C         140.3563  146.2304  157.3337 C.ar    1  UNL1        0.1000
     17 N         139.5703  145.9338  156.0911 N.ar    1  UNL1       -0.2480
     18 C         140.9167  139.0182  165.1047 C.ar    1  UNL1        0.0888
     19 C         140.1387  139.5348  166.2785 C.ar    1  UNL1        0.0259
     20 C         140.8452  139.8655  167.5598 C.ar    1  UNL1        0.1061
     21 C         142.3297  139.6796  167.6672 C.ar    1  UNL1        0.0215
     22 C         143.1078  139.1630  166.4934 C.ar    1  UNL1        0.0384
     23 C         142.4013  138.8323  165.2123 C.ar    1  UNL1        0.1432
     24 S         140.0670  140.3821  168.7335 S.O2    1  UNL1        0.0105
     25 C         139.2890  140.8987  169.9072 C.3     1  UNL1        0.1816
     26 O         141.2598  141.1781  169.1738 O.2     1  UNL1       -0.1686
     27 O         138.8743  139.5861  168.2933 O.2     1  UNL1       -0.1686
     28 O         143.1794  138.3157  164.0385 O.3     1  UNL1       -0.4702
     29 C         143.8932  139.2738  163.1315 C.3     1  UNL1        0.2599
     30 C         143.6501  139.2285  161.6520 C.3     1  UNL1        0.0566
     31 C         144.8500  140.2771  163.7040 C.3     1  UNL1        0.4340
     32 F         145.8069  141.2803  164.2766 F       1  UNL1       -0.1664
     33 F         144.0807  141.3851  163.0479 F       1  UNL1       -0.1664
     34 F         145.6193  139.1690  164.3602 F       1  UNL1       -0.1664
@<TRIPOS>BOND
     1    11    12    1
     2    12    13   ar
     3    13    14   ar
     4    14     1    1
     5     1     2   ar
     6     2     3   ar
     7     3     4   ar
     8     4     5   ar
     9     4     6    1
    10     6     7    1
    11     7     8   am
    12     8     9    2
    13     8    18    1
    14    18    19   ar
    15    19    20   ar
    16    20    24    1
    17    24    25    1
    18    24    26    2
    19    24    27    2
    20    20    21   ar
    21    21    22   ar
    22    22    23   ar
    23    23    28    1
    24    28    29    1
    25    29    30    1
    26    29    31    1
    27    31    32    1
    28    31    33    1
    29    31    34    1
    30     7    10    1
    31    14    15   ar
    32    15    16   ar
    33    16    17   ar
    34    17    12   ar
    35     5     1   ar
    36    23    18   ar
    37    10     3    1
