@<TRIPOS>MOLECULE
*****
 35 39 0 0 0
SMALL
GASTEIGER

@<TRIPOS>ATOM
      1 C         140.8742  138.8940  160.0264 C.3     1  UNL1        0.1700
      2 O         140.9782  139.4923  158.6548 O.3     1  UNL1       -0.3793
      3 H         140.0886  139.6236  158.2910 H       1  UNL1        0.2106
      4 C         139.5267  138.5981  160.6154 C.3     1  UNL1        0.2358
      5 O         138.7752  139.6715  161.3454 O.3     1  UNL1       -0.4726
      6 C         138.7380  140.9672  163.5970 C.ar    1  UNL1        0.0874
      7 C         138.6948  140.9652  165.0964 C.ar    1  UNL1        0.0099
      8 C         138.6456  139.6654  165.8435 C.ar    1  UNL1        0.0300
      9 C         138.6396  138.3677  165.0913 C.ar    1  UNL1        0.1432
     10 F         138.5905  137.0680  165.8385 F       1  UNL1       -0.2041
     11 C         138.6828  138.3697  163.5919 C.ar    1  UNL1        0.0666
     12 C         138.7320  139.6694  162.8448 C.ar    1  UNL1        0.1452
     13 O         137.6395  142.6718  161.9729 O.2     1  UNL1       -0.2700
     14 C         138.7872  142.2669  162.8499 C.2     1  UNL1        0.2488
     15 N         139.9840  143.1618  162.9797 N.am    1  UNL1       -0.3024
     16 H         140.7372  142.8961  163.5553 H       1  UNL1        0.1497
     17 C         140.0331  144.4616  162.2325 C.3     1  UNL1        0.0720
     18 C         140.5489  145.2838  161.0889 C.3     1  UNL1        0.0213
     19 C         139.6026  145.8905  162.0821 C.3     1  UNL1        0.0213
     20 C         142.1176  138.5916  160.8089 C.3     1  UNL1        0.1056
     21 N         142.2239  139.0191  162.2429 N.3     1  UNL1       -0.2703
     22 C         142.1946  137.9921  163.3358 C.3     1  UNL1        0.0758
     23 C         142.3009  138.4196  164.7696 C.3     1  UNL1        0.0577
     24 C         142.4364  139.8741  165.1105 C.3     1  UNL1        0.1399
     25 C         142.4657  140.9010  164.0176 C.3     1  UNL1        0.0577
     26 C         142.3594  140.4735  162.5838 C.3     1  UNL1        0.0758
     27 C         142.5759  141.2844  165.6021 C.3     1  UNL1        0.0695
     28 C         142.6475  141.2483  167.1000 C.ar    1  UNL1        0.0161
     29 C         142.7871  142.3347  168.1247 C.ar    1  UNL1        0.0102
     30 C         142.8316  141.9886  169.5835 C.ar    1  UNL1        0.0576
     31 CL        142.9712  143.0751  170.6082 Cl      1  UNL1       -0.0823
     32 C         142.7364  140.5560  170.0177 C.ar    1  UNL1        0.0145
     33 C         142.5968  139.4695  168.9930 C.ar    1  UNL1        0.0374
     34 C         142.5524  139.8156  167.5342 C.ar    1  UNL1        0.1343
     35 O         142.4219  138.9663  166.3047 O.3     1  UNL1       -0.4825
@<TRIPOS>BOND
     1    13    14    2
     2    14    15   am
     3    15    17    1
     4    17    18    1
     5    18    19    1
     6    14     6    1
     7     6     7   ar
     8     7     8   ar
     9     8     9   ar
    10     9    10    1
    11     9    11   ar
    12    11    12   ar
    13    12     5    1
    14     5     4    1
    15     4     1    1
    16     1     2    1
    17     1    20    1
    18    20    21    1
    19    21    22    1
    20    22    23    1
    21    23    24    1
    22    24    25    1
    23    25    26    1
    24    24    27    1
    25    27    28    1
    26    28    29   ar
    27    29    30   ar
    28    30    31    1
    29    30    32   ar
    30    32    33   ar
    31    33    34   ar
    32    34    35    1
    33    19    17    1
    34    12     6   ar
    35    26    21    1
    36    34    28   ar
    37    35    24    1
    38    15    16    1
    39     2     3    1
@<TRIPOS>MOLECULE
*****
 35 39 0 0 0
SMALL
GASTEIGER

@<TRIPOS>ATOM
      1 C         143.7026  140.3537  159.9389 C.3     1  UNL1        0.1700
      2 O         144.0935  139.6792  158.6574 O.3     1  UNL1       -0.3793
      3 H         144.7275  140.2362  158.1792 H       1  UNL1        0.2106
      4 C         144.2880  141.6887  160.2928 C.3     1  UNL1        0.2358
      5 O         143.4272  142.9167  160.2633 O.3     1  UNL1       -0.4726
      6 C         141.9496  144.5702  161.6170 C.ar    1  UNL1        0.0874
      7 C         141.6633  145.3161  162.8865 C.ar    1  UNL1        0.0099
      8 C         142.5682  145.1544  164.0718 C.ar    1  UNL1        0.0300
      9 C         143.7594  144.2467  163.9876 C.ar    1  UNL1        0.1432
     10 F         144.6644  144.0850  165.1729 F       1  UNL1       -0.2041
     11 C         144.0458  143.5008  162.7181 C.ar    1  UNL1        0.0666
     12 C         143.1409  143.6626  161.5328 C.ar    1  UNL1        0.1452
     13 O         139.5920  144.3748  160.5429 O.2     1  UNL1       -0.2700
     14 C         141.0447  144.7320  160.4317 C.2     1  UNL1        0.2488
     15 N         141.5923  145.2509  159.1353 N.am    1  UNL1       -0.3024
     16 H         142.5457  145.4854  159.0623 H       1  UNL1        0.1497
     17 C         140.6874  145.4127  157.9500 C.3     1  UNL1        0.0720
     18 C         140.0186  146.2938  156.9369 C.3     1  UNL1        0.0213
     19 C         139.7889  144.8117  156.9100 C.3     1  UNL1        0.0213
     20 C         142.7262  139.6932  160.8666 C.3     1  UNL1        0.1056
     21 N         142.5383  140.2216  162.2578 N.3     1  UNL1       -0.2703
     22 C         143.6213  140.0437  163.2803 C.3     1  UNL1        0.0758
     23 C         143.4333  140.5722  164.6715 C.3     1  UNL1        0.0577
     24 C         142.1624  141.2785  165.0402 C.3     1  UNL1        0.1399
     25 C         141.0795  141.4564  164.0177 C.3     1  UNL1        0.0577
     26 C         141.2674  140.9280  162.6265 C.3     1  UNL1        0.0758
     27 C         140.9525  142.0021  165.5525 C.3     1  UNL1        0.0695
     28 C         141.1937  142.3469  166.9923 C.ar    1  UNL1        0.0161
     29 C         140.3514  143.0598  168.0084 C.ar    1  UNL1        0.0102
     30 C         140.8682  143.2622  169.4020 C.ar    1  UNL1        0.0576
     31 CL        140.0259  143.9751  170.4180 Cl      1  UNL1       -0.0823
     32 C         142.2271  142.7517  169.7795 C.ar    1  UNL1        0.0145
     33 C         143.0695  142.0388  168.7634 C.ar    1  UNL1        0.0374
     34 C         142.5527  141.8364  167.3698 C.ar    1  UNL1        0.1343
     35 O         143.1514  141.1761  166.1634 O.3     1  UNL1       -0.4825
@<TRIPOS>BOND
     1    13    14    2
     2    14    15   am
     3    15    17    1
     4    17    18    1
     5    18    19    1
     6    14     6    1
     7     6     7   ar
     8     7     8   ar
     9     8     9   ar
    10     9    10    1
    11     9    11   ar
    12    11    12   ar
    13    12     5    1
    14     5     4    1
    15     4     1    1
    16     1     2    1
    17     1    20    1
    18    20    21    1
    19    21    22    1
    20    22    23    1
    21    23    24    1
    22    24    25    1
    23    25    26    1
    24    24    27    1
    25    27    28    1
    26    28    29   ar
    27    29    30   ar
    28    30    31    1
    29    30    32   ar
    30    32    33   ar
    31    33    34   ar
    32    34    35    1
    33    19    17    1
    34    12     6   ar
    35    26    21    1
    36    34    28   ar
    37    35    24    1
    38    15    16    1
    39     2     3    1
@<TRIPOS>MOLECULE
*****
 35 39 0 0 0
SMALL
GASTEIGER

@<TRIPOS>ATOM
      1 C         138.7784  141.3030  159.5292 C.3     1  UNL1        0.1700
      2 O         139.7492  140.9093  158.4557 O.3     1  UNL1       -0.3793
      3 H         139.9985  141.6933  157.9418 H       1  UNL1        0.2106
      4 C         138.3497  142.7341  159.6646 C.3     1  UNL1        0.2358
      5 O         139.2834  143.7431  160.2646 O.3     1  UNL1       -0.4726
      6 C         140.8486  143.6381  162.3357 C.ar    1  UNL1        0.0874
      7 C         141.0412  143.6908  163.8223 C.ar    1  UNL1        0.0099
      8 C         139.8615  143.9012  164.7245 C.ar    1  UNL1        0.0300
      9 C         138.4891  144.0589  164.1401 C.ar    1  UNL1        0.1432
     10 F         137.3093  144.2692  165.0423 F       1  UNL1       -0.2041
     11 C         138.2964  144.0062  162.6534 C.ar    1  UNL1        0.0666
     12 C         139.4761  143.7958  161.7512 C.ar    1  UNL1        0.1452
     13 O         143.2923  144.2035  161.6585 O.2     1  UNL1       -0.2700
     14 C         142.0283  143.4277  161.4335 C.2     1  UNL1        0.2488
     15 N         141.9441  142.4417  160.3063 N.am    1  UNL1       -0.3024
     16 H         141.1145  141.9326  160.1586 H       1  UNL1        0.1497
     17 C         143.1238  142.2313  159.4041 C.3     1  UNL1        0.0720
     18 C         144.1870  142.7886  158.5046 C.3     1  UNL1        0.0213
     19 C         144.1040  141.3097  158.7410 C.3     1  UNL1        0.0213
     20 C         138.2362  140.2657  160.4672 C.3     1  UNL1        0.1056
     21 N         138.7327  140.2002  161.8812 N.3     1  UNL1       -0.2703
     22 C         140.1835  139.9352  162.1551 C.3     1  UNL1        0.0758
     23 C         140.6800  139.8698  163.5690 C.3     1  UNL1        0.0577
     24 C         139.7257  140.0693  164.7090 C.3     1  UNL1        0.1399
     25 C         138.2750  140.3343  164.4351 C.3     1  UNL1        0.0577
     26 C         137.7785  140.3998  163.0212 C.3     1  UNL1        0.0758
     27 C         138.8942  140.2478  165.9446 C.3     1  UNL1        0.0695
     28 C         139.7955  140.1027  167.1349 C.ar    1  UNL1        0.0161
     29 C         139.5312  140.1801  168.6094 C.ar    1  UNL1        0.0102
     30 C         140.6555  139.9893  169.5839 C.ar    1  UNL1        0.0576
     31 CL        140.3912  140.0667  171.0584 Cl      1  UNL1       -0.0823
     32 C         142.0440  139.7211  169.0839 C.ar    1  UNL1        0.0145
     33 C         142.3083  139.6437  167.6094 C.ar    1  UNL1        0.0374
     34 C         141.1841  139.8345  166.6349 C.ar    1  UNL1        0.1343
     35 O         141.1409  139.8139  165.1357 O.3     1  UNL1       -0.4825
@<TRIPOS>BOND
     1    13    14    2
     2    14    15   am
     3    15    17    1
     4    17    18    1
     5    18    19    1
     6    14     6    1
     7     6     7   ar
     8     7     8   ar
     9     8     9   ar
    10     9    10    1
    11     9    11   ar
    12    11    12   ar
    13    12     5    1
    14     5     4    1
    15     4     1    1
    16     1     2    1
    17     1    20    1
    18    20    21    1
    19    21    22    1
    20    22    23    1
    21    23    24    1
    22    24    25    1
    23    25    26    1
    24    24    27    1
    25    27    28    1
    26    28    29   ar
    27    29    30   ar
    28    30    31    1
    29    30    32   ar
    30    32    33   ar
    31    33    34   ar
    32    34    35    1
    33    19    17    1
    34    12     6   ar
    35    26    21    1
    36    34    28   ar
    37    35    24    1
    38    15    16    1
    39     2     3    1
@<TRIPOS>MOLECULE
*****
 35 39 0 0 0
SMALL
GASTEIGER

@<TRIPOS>ATOM
      1 C         138.3027  140.2356  160.0943 C.3     1  UNL1        0.1700
      2 O         136.9234  139.8653  159.6355 O.3     1  UNL1       -0.3793
      3 H         136.5769  140.5626  159.0571 H       1  UNL1        0.2106
      4 C         138.9225  141.5247  159.6424 C.3     1  UNL1        0.2358
      5 O         138.3390  142.8334  160.0859 O.3     1  UNL1       -0.4726
      6 C         139.8018  144.3141  161.6407 C.ar    1  UNL1        0.0874
      7 C         140.1146  144.8505  163.0061 C.ar    1  UNL1        0.0099
      8 C         139.2776  144.4426  164.1821 C.ar    1  UNL1        0.0300
      9 C         138.1277  143.4983  163.9927 C.ar    1  UNL1        0.1432
     10 F         137.2906  143.0904  165.1687 F       1  UNL1       -0.2041
     11 C         137.8147  142.9619  162.6272 C.ar    1  UNL1        0.0666
     12 C         138.6518  143.3698  161.4513 C.ar    1  UNL1        0.1452
     13 O         142.1337  144.6191  160.5364 O.2     1  UNL1       -0.2700
     14 C         140.6389  144.7220  160.4648 C.2     1  UNL1        0.2488
     15 N         139.9812  145.2329  159.2172 N.am    1  UNL1       -0.3024
     16 H         139.0002  145.3005  159.1702 H       1  UNL1        0.1497
     17 C         140.8183  145.6408  158.0412 C.3     1  UNL1        0.0720
     18 C         140.9374  145.9651  156.5816 C.3     1  UNL1        0.0213
     19 C         142.1490  146.0231  157.4641 C.3     1  UNL1        0.0213
     20 C         139.0621  139.3168  161.0048 C.3     1  UNL1        0.1056
     21 N         139.4071  139.7569  162.3967 N.3     1  UNL1       -0.2703
     22 C         138.5191  139.3782  163.5448 C.3     1  UNL1        0.0758
     23 C         138.8640  139.8183  164.9366 C.3     1  UNL1        0.0577
     24 C         140.0970  140.6371  165.1804 C.3     1  UNL1        0.1399
     25 C         140.9849  141.0158  164.0324 C.3     1  UNL1        0.0577
     26 C         140.6400  140.5757  162.6405 C.3     1  UNL1        0.0758
     27 C         141.2904  141.4552  165.5762 C.3     1  UNL1        0.0695
     28 C         141.2400  141.6601  167.0614 C.ar    1  UNL1        0.0161
     29 C         142.1510  142.3869  168.0057 C.ar    1  UNL1        0.0102
     30 C         141.8375  142.4223  169.4722 C.ar    1  UNL1        0.0576
     31 CL        142.7484  143.1491  170.4165 Cl      1  UNL1       -0.0823
     32 C         140.6130  141.7309  169.9942 C.ar    1  UNL1        0.0145
     33 C         139.7020  141.0040  169.0499 C.ar    1  UNL1        0.0374
     34 C         140.0155  140.9686  167.5834 C.ar    1  UNL1        0.1343
     35 O         139.3091  140.3364  166.4210 O.3     1  UNL1       -0.4825
@<TRIPOS>BOND
     1    13    14    2
     2    14    15   am
     3    15    17    1
     4    17    18    1
     5    18    19    1
     6    14     6    1
     7     6     7   ar
     8     7     8   ar
     9     8     9   ar
    10     9    10    1
    11     9    11   ar
    12    11    12   ar
    13    12     5    1
    14     5     4    1
    15     4     1    1
    16     1     2    1
    17     1    20    1
    18    20    21    1
    19    21    22    1
    20    22    23    1
    21    23    24    1
    22    24    25    1
    23    25    26    1
    24    24    27    1
    25    27    28    1
    26    28    29   ar
    27    29    30   ar
    28    30    31    1
    29    30    32   ar
    30    32    33   ar
    31    33    34   ar
    32    34    35    1
    33    19    17    1
    34    12     6   ar
    35    26    21    1
    36    34    28   ar
    37    35    24    1
    38    15    16    1
    39     2     3    1
@<TRIPOS>MOLECULE
*****
 35 39 0 0 0
SMALL
GASTEIGER

@<TRIPOS>ATOM
      1 C         138.3122  140.1731  160.3432 C.3     1  UNL1        0.1700
      2 O         138.5998  139.5365  159.0158 O.3     1  UNL1       -0.3793
      3 H         138.5755  140.2128  158.3208 H       1  UNL1        0.2106
      4 C         138.0457  141.6470  160.4261 C.3     1  UNL1        0.2358
      5 O         139.1844  142.6058  160.6100 O.3     1  UNL1       -0.4726
      6 C         140.8065  143.5960  162.3816 C.ar    1  UNL1        0.0874
      7 C         141.0358  144.2409  163.7163 C.ar    1  UNL1        0.0099
      8 C         139.8722  144.5406  164.6142 C.ar    1  UNL1        0.0300
      9 C         138.4794  144.1953  164.1775 C.ar    1  UNL1        0.1432
     10 F         137.3158  144.4950  165.0754 F       1  UNL1       -0.2041
     11 C         138.2501  143.5504  162.8427 C.ar    1  UNL1        0.0666
     12 C         139.4137  143.2507  161.9447 C.ar    1  UNL1        0.1452
     13 O         143.1590  144.2109  161.4662 O.2     1  UNL1       -0.2700
     14 C         141.9701  143.2964  161.4836 C.2     1  UNL1        0.2488
     15 N         141.9448  142.0823  160.6032 N.am    1  UNL1       -0.3024
     16 H         141.1646  141.4821  160.6146 H       1  UNL1        0.1497
     17 C         143.1084  141.7826  159.7052 C.3     1  UNL1        0.0720
     18 C         144.3478  142.2337  158.9908 C.3     1  UNL1        0.0213
     19 C         143.8844  140.8126  158.8644 C.3     1  UNL1        0.0213
     20 C         138.2911  139.3359  161.5876 C.3     1  UNL1        0.1056
     21 N         138.9417  139.8399  162.8417 N.3     1  UNL1       -0.2703
     22 C         138.0968  140.2768  164.0015 C.3     1  UNL1        0.0758
     23 C         138.7474  140.7808  165.2556 C.3     1  UNL1        0.0577
     24 C         140.2429  140.8478  165.3498 C.3     1  UNL1        0.1399
     25 C         141.0879  140.4109  164.1900 C.3     1  UNL1        0.0577
     26 C         140.4372  139.9069  162.9360 C.3     1  UNL1        0.0758
     27 C         141.7186  140.9712  165.5893 C.3     1  UNL1        0.0695
     28 C         141.9198  141.5165  166.9722 C.ar    1  UNL1        0.0161
     29 C         143.1589  141.8462  167.7506 C.ar    1  UNL1        0.0102
     30 C         143.0467  142.3894  169.1443 C.ar    1  UNL1        0.0576
     31 CL        144.2857  142.7190  169.9228 Cl      1  UNL1       -0.0823
     32 C         141.6955  142.6030  169.7595 C.ar    1  UNL1        0.0145
     33 C         140.4563  142.2733  168.9810 C.ar    1  UNL1        0.0374
     34 C         140.5685  141.7301  167.5874 C.ar    1  UNL1        0.1343
     35 O         139.5322  141.3168  166.5848 O.3     1  UNL1       -0.4825
@<TRIPOS>BOND
     1    13    14    2
     2    14    15   am
     3    15    17    1
     4    17    18    1
     5    18    19    1
     6    14     6    1
     7     6     7   ar
     8     7     8   ar
     9     8     9   ar
    10     9    10    1
    11     9    11   ar
    12    11    12   ar
    13    12     5    1
    14     5     4    1
    15     4     1    1
    16     1     2    1
    17     1    20    1
    18    20    21    1
    19    21    22    1
    20    22    23    1
    21    23    24    1
    22    24    25    1
    23    25    26    1
    24    24    27    1
    25    27    28    1
    26    28    29   ar
    27    29    30   ar
    28    30    31    1
    29    30    32   ar
    30    32    33   ar
    31    33    34   ar
    32    34    35    1
    33    19    17    1
    34    12     6   ar
    35    26    21    1
    36    34    28   ar
    37    35    24    1
    38    15    16    1
    39     2     3    1
@<TRIPOS>MOLECULE
*****
 35 39 0 0 0
SMALL
GASTEIGER

@<TRIPOS>ATOM
      1 C         143.7291  139.0342  160.3171 C.3     1  UNL1        0.1700
      2 O         143.4888  138.5453  158.9195 O.3     1  UNL1       -0.3793
      3 H         143.5122  139.2962  158.3058 H       1  UNL1        0.2106
      4 C         143.9559  140.4949  160.5721 C.3     1  UNL1        0.2358
      5 O         142.8031  141.3789  160.9456 O.3     1  UNL1       -0.4726
      6 C         141.3827  142.1607  162.9758 C.ar    1  UNL1        0.0874
      7 C         141.2994  142.7412  164.3563 C.ar    1  UNL1        0.0099
      8 C         142.5531  143.1204  165.0875 C.ar    1  UNL1        0.0300
      9 C         143.8901  142.9190  164.4380 C.ar    1  UNL1        0.1432
     10 F         145.1438  143.2982  165.1691 F       1  UNL1       -0.2041
     11 C         143.9735  142.3385  163.0574 C.ar    1  UNL1        0.0666
     12 C         142.7198  141.9594  162.3262 C.ar    1  UNL1        0.1452
     13 O         138.8269  142.4363  162.5993 O.2     1  UNL1       -0.2700
     14 C         140.1291  141.7816  162.2446 C.2     1  UNL1        0.2488
     15 N         140.1775  140.7478  161.1589 N.am    1  UNL1       -0.3024
     16 H         141.0322  140.3181  160.9262 H       1  UNL1        0.1497
     17 C         138.9239  140.3686  160.4278 C.3     1  UNL1        0.0720
     18 C         138.1618  140.2252  159.1438 C.3     1  UNL1        0.0213
     19 C         137.5145  139.8554  160.4455 C.3     1  UNL1        0.0213
     20 C         143.7425  138.0625  161.4596 C.3     1  UNL1        0.1056
     21 N         143.1612  138.4556  162.7855 N.3     1  UNL1       -0.2703
     22 C         141.6780  138.3972  163.0011 C.3     1  UNL1        0.0758
     23 C         141.0969  138.7903  164.3269 C.3     1  UNL1        0.0577
     24 C         141.9990  139.2418  165.4370 C.3     1  UNL1        0.1399
     25 C         143.4822  139.3002  165.2213 C.3     1  UNL1        0.0577
     26 C         144.0633  138.9071  163.8956 C.3     1  UNL1        0.0758
     27 C         142.7716  139.7111  166.6341 C.3     1  UNL1        0.0695
     28 C         141.7932  139.9940  167.7355 C.ar    1  UNL1        0.0161
     29 C         141.9785  140.4816  169.1418 C.ar    1  UNL1        0.0102
     30 C         140.7866  140.6749  170.0318 C.ar    1  UNL1        0.0576
     31 CL        140.9719  141.1625  171.4381 Cl      1  UNL1       -0.0823
     32 C         139.4094  140.3805  169.5154 C.ar    1  UNL1        0.0145
     33 C         139.2241  139.8928  168.1090 C.ar    1  UNL1        0.0374
     34 C         140.4160  139.6996  167.2190 C.ar    1  UNL1        0.1343
     35 O         140.5432  139.2347  165.7986 O.3     1  UNL1       -0.4825
@<TRIPOS>BOND
     1    13    14    2
     2    14    15   am
     3    15    17    1
     4    17    18    1
     5    18    19    1
     6    14     6    1
     7     6     7   ar
     8     7     8   ar
     9     8     9   ar
    10     9    10    1
    11     9    11   ar
    12    11    12   ar
    13    12     5    1
    14     5     4    1
    15     4     1    1
    16     1     2    1
    17     1    20    1
    18    20    21    1
    19    21    22    1
    20    22    23    1
    21    23    24    1
    22    24    25    1
    23    25    26    1
    24    24    27    1
    25    27    28    1
    26    28    29   ar
    27    29    30   ar
    28    30    31    1
    29    30    32   ar
    30    32    33   ar
    31    33    34   ar
    32    34    35    1
    33    19    17    1
    34    12     6   ar
    35    26    21    1
    36    34    28   ar
    37    35    24    1
    38    15    16    1
    39     2     3    1
@<TRIPOS>MOLECULE
*****
 35 39 0 0 0
SMALL
GASTEIGER

@<TRIPOS>ATOM
      1 C         139.4262  141.0886  159.8651 C.3     1  UNL1        0.1700
      2 O         140.4945  141.2813  158.8299 O.3     1  UNL1       -0.3793
      3 H         140.4778  140.5388  158.2060 H       1  UNL1        0.2106
      4 C         138.5411  139.8786  159.8133 C.3     1  UNL1        0.2358
      5 O         139.1185  138.5160  160.0580 O.3     1  UNL1       -0.4726
      6 C         141.2981  138.1997  161.4363 C.ar    1  UNL1        0.0874
      7 C         141.9797  137.8967  162.7377 C.ar    1  UNL1        0.0099
      8 C         141.1633  137.6070  163.9622 C.ar    1  UNL1        0.0300
      9 C         139.6653  137.6202  163.8854 C.ar    1  UNL1        0.1432
     10 F         138.8489  137.3305  165.1100 F       1  UNL1       -0.2041
     11 C         138.9837  137.9233  162.5840 C.ar    1  UNL1        0.0666
     12 C         139.8001  138.2130  161.3594 C.ar    1  UNL1        0.1452
     13 O         143.4805  139.0944  160.3469 O.2     1  UNL1       -0.2700
     14 C         142.1145  138.4895  160.2117 C.2     1  UNL1        0.2488
     15 N         141.5650  138.1743  158.8521 N.am    1  UNL1       -0.3024
     16 H         140.6684  137.7773  158.7634 H       1  UNL1        0.1497
     17 C         142.3814  138.4641  157.6275 C.3     1  UNL1        0.0720
     18 C         143.1455  137.9796  156.4312 C.3     1  UNL1        0.0213
     19 C         143.0312  139.4503  156.7029 C.3     1  UNL1        0.0213
     20 C         139.2429  142.1059  160.9520 C.3     1  UNL1        0.1056
     21 N         139.5802  141.7563  162.3712 N.3     1  UNL1       -0.2703
     22 C         138.4832  141.5301  163.3689 C.3     1  UNL1        0.0758
     23 C         138.8206  141.1805  164.7880 C.3     1  UNL1        0.0577
     24 C         140.2549  141.0570  165.2095 C.3     1  UNL1        0.1399
     25 C         141.3518  141.2832  164.2117 C.3     1  UNL1        0.0577
     26 C         141.0145  141.6328  162.7926 C.3     1  UNL1        0.0758
     27 C         141.6355  140.8995  165.7744 C.3     1  UNL1        0.0695
     28 C         141.5047  140.5486  167.2270 C.ar    1  UNL1        0.0161
     29 C         142.5275  140.2755  168.2896 C.ar    1  UNL1        0.0102
     30 C         142.0889  139.9430  169.6850 C.ar    1  UNL1        0.0576
     31 CL        143.1117  139.6699  170.7477 Cl      1  UNL1       -0.0823
     32 C         140.6275  139.8837  170.0178 C.ar    1  UNL1        0.0145
     33 C         139.6046  140.1568  168.9551 C.ar    1  UNL1        0.0374
     34 C         140.0432  140.4893  167.5597 C.ar    1  UNL1        0.1343
     35 O         139.2708  140.8035  166.3129 O.3     1  UNL1       -0.4825
@<TRIPOS>BOND
     1    13    14    2
     2    14    15   am
     3    15    17    1
     4    17    18    1
     5    18    19    1
     6    14     6    1
     7     6     7   ar
     8     7     8   ar
     9     8     9   ar
    10     9    10    1
    11     9    11   ar
    12    11    12   ar
    13    12     5    1
    14     5     4    1
    15     4     1    1
    16     1     2    1
    17     1    20    1
    18    20    21    1
    19    21    22    1
    20    22    23    1
    21    23    24    1
    22    24    25    1
    23    25    26    1
    24    24    27    1
    25    27    28    1
    26    28    29   ar
    27    29    30   ar
    28    30    31    1
    29    30    32   ar
    30    32    33   ar
    31    33    34   ar
    32    34    35    1
    33    19    17    1
    34    12     6   ar
    35    26    21    1
    36    34    28   ar
    37    35    24    1
    38    15    16    1
    39     2     3    1
@<TRIPOS>MOLECULE
*****
 35 39 0 0 0
SMALL
GASTEIGER

@<TRIPOS>ATOM
      1 C         143.7949  142.2524  159.5639 C.3     1  UNL1        0.1700
      2 O         144.2785  141.5007  158.3593 O.3     1  UNL1       -0.3793
      3 H         143.5474  141.3917  157.7312 H       1  UNL1        0.2106
      4 C         142.3665  142.7036  159.6428 C.3     1  UNL1        0.2358
      5 O         141.4507  142.1170  160.6758 O.3     1  UNL1       -0.4726
      6 C         139.8757  142.4402  162.7167 C.ar    1  UNL1        0.0874
      7 C         139.0878  143.3425  163.6195 C.ar    1  UNL1        0.0099
      8 C         139.0870  144.8239  163.3843 C.ar    1  UNL1        0.0300
      9 C         139.8741  145.4031  162.2463 C.ar    1  UNL1        0.1432
     10 F         139.8733  146.8845  162.0111 F       1  UNL1       -0.2041
     11 C         140.6620  144.5008  161.3435 C.ar    1  UNL1        0.0666
     12 C         140.6628  143.0193  161.5786 C.ar    1  UNL1        0.1452
     13 O         139.3918  140.0288  161.8793 O.2     1  UNL1       -0.2700
     14 C         139.8765  140.9587  162.9519 C.2     1  UNL1        0.2488
     15 N         140.3619  140.4072  164.2595 N.am    1  UNL1       -0.3024
     16 H         140.6800  141.0175  164.9635 H       1  UNL1        0.1497
     17 C         140.3627  138.9257  164.4947 C.3     1  UNL1        0.0720
     18 C         139.6157  137.6333  164.6413 C.3     1  UNL1        0.0213
     19 C         141.1112  137.6523  164.7555 C.3     1  UNL1        0.0213
     20 C         144.7397  142.5529  160.6896 C.3     1  UNL1        0.1056
     21 N         144.3465  142.2392  162.1028 N.3     1  UNL1       -0.2703
     22 C         144.2033  140.8122  162.5422 C.3     1  UNL1        0.0758
     23 C         143.8102  140.4984  163.9553 C.3     1  UNL1        0.0577
     24 C         143.5603  141.6117  164.9290 C.3     1  UNL1        0.1399
     25 C         143.7034  143.0387  164.4896 C.3     1  UNL1        0.0577
     26 C         144.0966  143.3524  163.0765 C.3     1  UNL1        0.0758
     27 C         143.2793  142.6139  166.0092 C.3     1  UNL1        0.0695
     28 C         142.9244  141.8622  167.2580 C.ar    1  UNL1        0.0161
     29 C         142.5531  142.3238  168.6360 C.ar    1  UNL1        0.0102
     30 C         142.2435  141.3188  169.7056 C.ar    1  UNL1        0.0576
     31 CL        141.8722  141.7804  171.0836 Cl      1  UNL1       -0.0823
     32 C         142.3051  139.8522  169.3972 C.ar    1  UNL1        0.0145
     33 C         142.6764  139.3905  168.0191 C.ar    1  UNL1        0.0374
     34 C         142.9861  140.3955  166.9495 C.ar    1  UNL1        0.1343
     35 O         143.3790  140.2407  165.5102 O.3     1  UNL1       -0.4825
@<TRIPOS>BOND
     1    13    14    2
     2    14    15   am
     3    15    17    1
     4    17    18    1
     5    18    19    1
     6    14     6    1
     7     6     7   ar
     8     7     8   ar
     9     8     9   ar
    10     9    10    1
    11     9    11   ar
    12    11    12   ar
    13    12     5    1
    14     5     4    1
    15     4     1    1
    16     1     2    1
    17     1    20    1
    18    20    21    1
    19    21    22    1
    20    22    23    1
    21    23    24    1
    22    24    25    1
    23    25    26    1
    24    24    27    1
    25    27    28    1
    26    28    29   ar
    27    29    30   ar
    28    30    31    1
    29    30    32   ar
    30    32    33   ar
    31    33    34   ar
    32    34    35    1
    33    19    17    1
    34    12     6   ar
    35    26    21    1
    36    34    28   ar
    37    35    24    1
    38    15    16    1
    39     2     3    1
@<TRIPOS>MOLECULE
*****
 35 39 0 0 0
SMALL
GASTEIGER

@<TRIPOS>ATOM
      1 C         142.2034  137.9894  160.7860 C.3     1  UNL1        0.1700
      2 O         143.2045  136.8898  160.5892 O.3     1  UNL1       -0.3793
      3 H         143.8619  137.1651  159.9312 H       1  UNL1        0.2106
      4 C         142.3301  139.2668  160.0099 C.3     1  UNL1        0.2358
      5 O         143.4536  140.2157  160.3056 O.3     1  UNL1       -0.4726
      6 C         143.3970  141.9282  162.2585 C.ar    1  UNL1        0.0874
      7 C         143.7185  142.2908  163.6780 C.ar    1  UNL1        0.0099
      8 C         144.4183  141.3033  164.5642 C.ar    1  UNL1        0.0300
      9 C         144.7965  139.9534  164.0309 C.ar    1  UNL1        0.1432
     10 F         145.4962  138.9660  164.9171 F       1  UNL1       -0.2041
     11 C         144.4749  139.5908  162.6113 C.ar    1  UNL1        0.0666
     12 C         143.7752  140.5782  161.7251 C.ar    1  UNL1        0.1452
     13 O         143.1992  144.3261  161.2781 O.2     1  UNL1       -0.2700
     14 C         142.6972  142.9157  161.3723 C.2     1  UNL1        0.2488
     15 N         141.4956  142.4927  160.5804 N.am    1  UNL1       -0.3024
     16 H         141.1662  141.5670  160.6423 H       1  UNL1        0.1497
     17 C         140.7958  143.4802  159.6942 C.3     1  UNL1        0.0720
     18 C         140.1379  144.8143  159.5016 C.3     1  UNL1        0.0213
     19 C         140.2418  143.8563  158.3520 C.3     1  UNL1        0.0213
     20 C         141.0755  137.8116  161.7588 C.3     1  UNL1        0.1056
     21 N         141.0637  138.5864  163.0432 N.3     1  UNL1       -0.2703
     22 C         141.6651  137.9931  164.2826 C.3     1  UNL1        0.0758
     23 C         141.6532  138.7679  165.5669 C.3     1  UNL1        0.0577
     24 C         141.0400  140.1361  165.6117 C.3     1  UNL1        0.1399
     25 C         140.4386  140.7295  164.3723 C.3     1  UNL1        0.0577
     26 C         140.4505  139.9546  163.0880 C.3     1  UNL1        0.0758
     27 C         140.4657  141.5078  165.8087 C.3     1  UNL1        0.0695
     28 C         140.6711  141.8948  167.2433 C.ar    1  UNL1        0.0161
     29 C         140.3102  143.1320  168.0107 C.ar    1  UNL1        0.0102
     30 C         140.6506  143.2368  169.4678 C.ar    1  UNL1        0.0576
     31 CL        140.2897  144.4741  170.2352 Cl      1  UNL1       -0.0823
     32 C         141.3518  142.1044  170.1576 C.ar    1  UNL1        0.0145
     33 C         141.7127  140.8670  169.3902 C.ar    1  UNL1        0.0374
     34 C         141.3724  140.7622  167.9331 C.ar    1  UNL1        0.1343
     35 O         141.6003  139.6754  166.9247 O.3     1  UNL1       -0.4825
@<TRIPOS>BOND
     1    13    14    2
     2    14    15   am
     3    15    17    1
     4    17    18    1
     5    18    19    1
     6    14     6    1
     7     6     7   ar
     8     7     8   ar
     9     8     9   ar
    10     9    10    1
    11     9    11   ar
    12    11    12   ar
    13    12     5    1
    14     5     4    1
    15     4     1    1
    16     1     2    1
    17     1    20    1
    18    20    21    1
    19    21    22    1
    20    22    23    1
    21    23    24    1
    22    24    25    1
    23    25    26    1
    24    24    27    1
    25    27    28    1
    26    28    29   ar
    27    29    30   ar
    28    30    31    1
    29    30    32   ar
    30    32    33   ar
    31    33    34   ar
    32    34    35    1
    33    19    17    1
    34    12     6   ar
    35    26    21    1
    36    34    28   ar
    37    35    24    1
    38    15    16    1
    39     2     3    1
