@<TRIPOS>MOLECULE
*****
 31 35 0 0 0
SMALL
GASTEIGER

@<TRIPOS>ATOM
      1 C         139.3174  140.3130  163.5310 C.ar    1  UNL1       -0.0003
      2 C         138.2593  140.2497  164.5923 C.ar    1  UNL1        0.0001
      3 C         138.6471  140.0424  166.0264 C.ar    1  UNL1        0.0042
      4 C         140.0928  139.8985  166.3992 C.ar    1  UNL1        0.0497
      5 C         141.1509  139.9618  165.3379 C.ar    1  UNL1       -0.0161
      6 C         140.7632  140.1691  163.9038 C.ar    1  UNL1       -0.0041
      7 C         142.5967  139.8179  165.7107 C.3     1  UNL1        0.0480
      8 C         142.9844  139.6107  167.1447 C.3     1  UNL1        0.0984
      9 N         141.9263  139.5473  168.2062 N.am    1  UNL1       -0.2743
     10 C         140.4805  139.6912  167.8334 C.2     1  UNL1        0.2488
     11 O         139.4225  139.6279  168.8947 O.2     1  UNL1       -0.2699
     12 C         138.1543  140.9347  159.2285 C.ar    1  UNL1        0.0534
     13 C         137.4155  139.9352  160.0683 C.ar    1  UNL1        0.0045
     14 C         137.8032  139.7280  161.5024 C.ar    1  UNL1        0.0001
     15 C         138.9297  140.5202  162.0968 C.ar    1  UNL1       -0.0000
     16 C         139.6685  141.5197  161.2571 C.ar    1  UNL1        0.0001
     17 C         139.2808  141.7270  159.8229 C.ar    1  UNL1        0.0045
     18 O         137.9295  140.0266  156.8048 O.2     1  UNL1       -0.2701
     19 C         137.7666  141.1419  157.7944 C.2     1  UNL1        0.2458
     20 N         137.2160  142.4645  157.3500 N.am    1  UNL1       -0.3025
     21 H         137.1091  143.1965  157.9995 H       1  UNL1        0.1497
     22 C         136.8282  142.6718  155.9158 C.3     1  UNL1        0.0720
     23 C         136.8004  143.5350  154.6894 C.3     1  UNL1        0.0213
     24 C         136.1845  142.1676  154.6582 C.3     1  UNL1        0.0213
     25 C         142.3141  139.3401  169.6402 C.3     1  UNL1        0.1110
     26 C         142.5242  140.5226  170.5388 C.3     1  UNL1        0.0939
     27 N         141.6117  141.7093  170.4425 N.3     1  UNL1       -0.2712
     28 C         140.3515  141.9184  171.2288 C.3     1  UNL1        0.0722
     29 C         139.7601  143.2335  170.8153 C.3     1  UNL1        0.0188
     30 C         140.6548  143.8370  169.7735 C.3     1  UNL1        0.0188
     31 C         141.7991  142.8950  169.5431 C.3     1  UNL1        0.0722
@<TRIPOS>BOND
     1    18    19    2
     2    19    20   am
     3    20    22    1
     4    22    23    1
     5    23    24    1
     6    19    12    1
     7    12    13   ar
     8    13    14   ar
     9    14    15   ar
    10    15     1    1
    11     1     2   ar
    12     2     3   ar
    13     3     4   ar
    14     4     5   ar
    15     5     6   ar
    16     5     7    1
    17     7     8    1
    18     8     9    1
    19     9    25    1
    20    25    26    1
    21    26    27    1
    22    27    28    1
    23    28    29    1
    24    29    30    1
    25    30    31    1
    26     9    10   am
    27    10    11    2
    28    15    16   ar
    29    16    17   ar
    30    24    22    1
    31    17    12   ar
    32     6     1   ar
    33    31    27    1
    34    10     4    1
    35    20    21    1
@<TRIPOS>MOLECULE
*****
 31 35 0 0 0
SMALL
GASTEIGER

@<TRIPOS>ATOM
      1 C         140.5959  142.1027  165.3988 C.ar    1  UNL1       -0.0003
      2 C         142.0661  142.3774  165.2845 C.ar    1  UNL1        0.0001
      3 C         142.6120  143.0383  164.0536 C.ar    1  UNL1        0.0042
      4 C         141.6878  143.4244  162.9370 C.ar    1  UNL1        0.0497
      5 C         140.2177  143.1496  163.0513 C.ar    1  UNL1       -0.0161
      6 C         139.6717  142.4888  164.2822 C.ar    1  UNL1       -0.0041
      7 C         139.2935  143.5357  161.9347 C.3     1  UNL1        0.0480
      8 C         139.8395  144.1966  160.7038 C.3     1  UNL1        0.0984
      9 N         141.3097  144.4714  160.5895 N.am    1  UNL1       -0.2743
     10 C         142.2339  144.0853  161.7061 C.2     1  UNL1        0.2488
     11 O         143.7040  144.3601  161.5918 O.2     1  UNL1       -0.2699
     12 C         138.9578  140.1200  169.0916 C.ar    1  UNL1        0.0534
     13 C         139.7555  141.3848  169.2104 C.ar    1  UNL1        0.0045
     14 C         140.3015  142.0457  167.9795 C.ar    1  UNL1        0.0001
     15 C         140.0499  141.4418  166.6297 C.ar    1  UNL1       -0.0000
     16 C         139.2523  140.1770  166.5108 C.ar    1  UNL1        0.0001
     17 C         138.7062  139.5161  167.7418 C.ar    1  UNL1        0.0045
     18 O         139.2849  139.2838  171.5295 O.2     1  UNL1       -0.2701
     19 C         138.4118  139.4592  170.3224 C.2     1  UNL1        0.2458
     20 N         136.9928  138.9738  170.3463 N.am    1  UNL1       -0.3025
     21 H         136.4198  139.0889  169.5540 H       1  UNL1        0.1497
     22 C         136.4467  138.3129  171.5772 C.3     1  UNL1        0.0720
     23 C         135.3542  138.1602  172.5936 C.3     1  UNL1        0.0213
     24 C         136.5934  137.3210  172.6928 C.3     1  UNL1        0.0213
     25 C         141.8557  145.1323  159.3586 C.3     1  UNL1        0.1110
     26 C         141.5020  144.5995  158.0017 C.3     1  UNL1        0.0939
     27 N         140.8345  145.4909  156.9967 N.3     1  UNL1       -0.2712
     28 C         139.7146  146.4493  157.2746 C.3     1  UNL1        0.0722
     29 C         139.3576  147.1310  155.9869 C.3     1  UNL1        0.0188
     30 C         140.2570  146.5939  154.9133 C.3     1  UNL1        0.0188
     31 C         141.1697  145.5802  155.5374 C.3     1  UNL1        0.0722
@<TRIPOS>BOND
     1    18    19    2
     2    19    20   am
     3    20    22    1
     4    22    23    1
     5    23    24    1
     6    19    12    1
     7    12    13   ar
     8    13    14   ar
     9    14    15   ar
    10    15     1    1
    11     1     2   ar
    12     2     3   ar
    13     3     4   ar
    14     4     5   ar
    15     5     6   ar
    16     5     7    1
    17     7     8    1
    18     8     9    1
    19     9    25    1
    20    25    26    1
    21    26    27    1
    22    27    28    1
    23    28    29    1
    24    29    30    1
    25    30    31    1
    26     9    10   am
    27    10    11    2
    28    15    16   ar
    29    16    17   ar
    30    24    22    1
    31    17    12   ar
    32     6     1   ar
    33    31    27    1
    34    10     4    1
    35    20    21    1
@<TRIPOS>MOLECULE
*****
 31 35 0 0 0
SMALL
GASTEIGER

@<TRIPOS>ATOM
      1 C         139.9822  139.2327  161.9462 C.ar    1  UNL1       -0.0003
      2 C         138.7802  139.4337  161.0718 C.ar    1  UNL1        0.0001
      3 C         138.8513  139.1005  159.6111 C.ar    1  UNL1        0.0042
      4 C         140.1244  138.5661  159.0248 C.ar    1  UNL1        0.0497
      5 C         141.3264  138.3651  159.8992 C.ar    1  UNL1       -0.0161
      6 C         141.2553  138.6983  161.3599 C.ar    1  UNL1       -0.0041
      7 C         142.5995  137.8307  159.3129 C.3     1  UNL1        0.0480
      8 C         142.6705  137.4974  157.8521 C.3     1  UNL1        0.0984
      9 N         141.4685  137.6985  156.9776 N.am    1  UNL1       -0.2743
     10 C         140.1954  138.2328  157.5639 C.2     1  UNL1        0.2488
     11 O         138.9934  138.4339  156.6895 O.2     1  UNL1       -0.2699
     12 C         139.7691  140.2325  166.3287 C.ar    1  UNL1        0.0534
     13 C         138.5903  139.6068  165.6439 C.ar    1  UNL1        0.0045
     14 C         138.6613  139.2735  164.1831 C.ar    1  UNL1        0.0001
     15 C         139.9112  139.5660  163.4071 C.ar    1  UNL1       -0.0000
     16 C         141.0900  140.1916  164.0918 C.ar    1  UNL1        0.0001
     17 C         141.0190  140.5249  165.5526 C.ar    1  UNL1        0.0045
     18 O         138.9695  139.6544  168.7320 O.2     1  UNL1       -0.2701
     19 C         139.6981  140.5658  167.7894 C.2     1  UNL1        0.2458
     20 N         140.3556  141.8104  168.3075 N.am    1  UNL1       -0.3025
     21 H         140.8338  142.4085  167.6889 H       1  UNL1        0.1497
     22 C         140.2846  142.1437  169.7684 C.3     1  UNL1        0.0720
     23 C         139.6760  142.9261  170.8941 C.3     1  UNL1        0.0213
     24 C         140.7701  141.9386  171.1727 C.3     1  UNL1        0.0213
     25 C         141.5395  137.3652  155.5169 C.3     1  UNL1        0.1110
     26 C         141.0713  136.0261  155.0295 C.3     1  UNL1        0.0939
     27 N         141.8940  134.8008  155.2976 N.3     1  UNL1       -0.2712
     28 C         141.3835  133.3915  155.3552 C.3     1  UNL1        0.0722
     29 C         142.5456  132.4893  155.6484 C.3     1  UNL1        0.0188
     30 C         143.7741  133.3411  155.7718 C.3     1  UNL1        0.0188
     31 C         143.3714  134.7697  155.5550 C.3     1  UNL1        0.0722
@<TRIPOS>BOND
     1    18    19    2
     2    19    20   am
     3    20    22    1
     4    22    23    1
     5    23    24    1
     6    19    12    1
     7    12    13   ar
     8    13    14   ar
     9    14    15   ar
    10    15     1    1
    11     1     2   ar
    12     2     3   ar
    13     3     4   ar
    14     4     5   ar
    15     5     6   ar
    16     5     7    1
    17     7     8    1
    18     8     9    1
    19     9    25    1
    20    25    26    1
    21    26    27    1
    22    27    28    1
    23    28    29    1
    24    29    30    1
    25    30    31    1
    26     9    10   am
    27    10    11    2
    28    15    16   ar
    29    16    17   ar
    30    24    22    1
    31    17    12   ar
    32     6     1   ar
    33    31    27    1
    34    10     4    1
    35    20    21    1
@<TRIPOS>MOLECULE
*****
 31 35 0 0 0
SMALL
GASTEIGER

@<TRIPOS>ATOM
      1 C         141.3836  142.0636  165.6983 C.ar    1  UNL1       -0.0003
      2 C         140.8374  142.5265  167.0164 C.ar    1  UNL1        0.0001
      3 C         141.1034  141.7306  168.2596 C.ar    1  UNL1        0.0042
      4 C         141.9156  140.4717  168.1848 C.ar    1  UNL1        0.0497
      5 C         142.4618  140.0087  166.8667 C.ar    1  UNL1       -0.0161
      6 C         142.1957  140.8047  165.6235 C.ar    1  UNL1       -0.0041
      7 C         143.2739  138.7499  166.7918 C.3     1  UNL1        0.0480
      8 C         143.5400  137.9539  168.0351 C.3     1  UNL1        0.0984
      9 N         142.9938  138.4168  169.3532 N.am    1  UNL1       -0.2743
     10 C         142.1816  139.6757  169.4281 C.2     1  UNL1        0.2488
     11 O         141.6355  140.1386  170.7462 O.2     1  UNL1       -0.2699
     12 C         140.5856  144.4514  161.9685 C.ar    1  UNL1        0.0534
     13 C         141.8765  144.6297  162.7113 C.ar    1  UNL1        0.0045
     14 C         142.1425  143.8337  163.9546 C.ar    1  UNL1        0.0001
     15 C         141.1175  142.8595  164.4550 C.ar    1  UNL1       -0.0000
     16 C         139.8266  142.6813  163.7123 C.ar    1  UNL1        0.0001
     17 C         139.5606  143.4773  162.4689 C.ar    1  UNL1        0.0045
     18 O         139.4467  146.4657  160.7870 O.2     1  UNL1       -0.2701
     19 C         140.3196  145.2474  160.7252 C.2     1  UNL1        0.2458
     20 N         140.9265  144.8250  159.4202 N.am    1  UNL1       -0.3025
     21 H         141.4994  144.0254  159.3796 H       1  UNL1        0.1497
     22 C         140.6606  145.6210  158.1768 C.3     1  UNL1        0.0720
     23 C         141.1269  146.1691  156.8608 C.3     1  UNL1        0.0213
     24 C         139.7336  146.4514  157.3395 C.3     1  UNL1        0.0213
     25 C         143.2598  137.6209  170.5964 C.3     1  UNL1        0.1110
     26 C         144.1596  136.4219  170.5412 C.3     1  UNL1        0.0939
     27 N         145.0746  136.1174  171.6902 N.3     1  UNL1       -0.2712
     28 C         145.2032  134.7960  172.3884 C.3     1  UNL1        0.0722
     29 C         146.2297  134.9426  173.4724 C.3     1  UNL1        0.0188
     30 C         146.7354  136.3546  173.4441 C.3     1  UNL1        0.0188
     31 C         146.0214  137.0806  172.3426 C.3     1  UNL1        0.0722
@<TRIPOS>BOND
     1    18    19    2
     2    19    20   am
     3    20    22    1
     4    22    23    1
     5    23    24    1
     6    19    12    1
     7    12    13   ar
     8    13    14   ar
     9    14    15   ar
    10    15     1    1
    11     1     2   ar
    12     2     3   ar
    13     3     4   ar
    14     4     5   ar
    15     5     6   ar
    16     5     7    1
    17     7     8    1
    18     8     9    1
    19     9    25    1
    20    25    26    1
    21    26    27    1
    22    27    28    1
    23    28    29    1
    24    29    30    1
    25    30    31    1
    26     9    10   am
    27    10    11    2
    28    15    16   ar
    29    16    17   ar
    30    24    22    1
    31    17    12   ar
    32     6     1   ar
    33    31    27    1
    34    10     4    1
    35    20    21    1
@<TRIPOS>MOLECULE
*****
 31 35 0 0 0
SMALL
GASTEIGER

@<TRIPOS>ATOM
      1 C         141.1644  138.6967  161.0678 C.ar    1  UNL1       -0.0003
      2 C         142.6292  138.7549  160.7504 C.ar    1  UNL1        0.0001
      3 C         143.0950  138.6181  159.3312 C.ar    1  UNL1        0.0042
      4 C         142.0960  138.4230  158.2294 C.ar    1  UNL1        0.0497
      5 C         140.6312  138.3648  158.5468 C.ar    1  UNL1       -0.0161
      6 C         140.1654  138.5016  159.9660 C.ar    1  UNL1       -0.0041
      7 C         139.6322  138.1698  157.4450 C.3     1  UNL1        0.0480
      8 C         140.0980  138.0329  156.0258 C.3     1  UNL1        0.0984
      9 N         141.5630  138.0911  155.7083 N.am    1  UNL1       -0.2743
     10 C         142.5620  138.2862  156.8101 C.2     1  UNL1        0.2488
     11 O         144.0268  138.3444  156.4927 O.2     1  UNL1       -0.2699
     12 C         139.7667  139.1071  165.3256 C.ar    1  UNL1        0.0534
     13 C         139.9744  137.7451  164.7323 C.ar    1  UNL1        0.0045
     14 C         140.4403  137.6083  163.3131 C.ar    1  UNL1        0.0001
     15 C         140.6985  138.8335  162.4871 C.ar    1  UNL1       -0.0000
     16 C         140.4908  140.1954  163.0803 C.ar    1  UNL1        0.0001
     17 C         140.0249  140.3323  164.4996 C.ar    1  UNL1        0.0045
     18 O         138.0089  138.6139  167.1742 O.2     1  UNL1       -0.2701
     19 C         139.3008  139.2439  166.7448 C.2     1  UNL1        0.2458
     20 N         140.1267  140.0106  167.7347 N.am    1  UNL1       -0.3025
     21 H         140.9746  140.4240  167.4529 H       1  UNL1        0.1497
     22 C         139.6609  140.1474  169.1540 C.3     1  UNL1        0.0720
     23 C         138.5663  140.4273  170.1406 C.3     1  UNL1        0.0213
     24 C         139.9485  140.1044  170.6255 C.3     1  UNL1        0.0213
     25 C         142.0288  137.9543  154.2891 C.3     1  UNL1        0.1110
     26 C         142.1304  136.5961  153.6607 C.3     1  UNL1        0.0939
     27 N         142.3430  135.3857  154.5210 N.3     1  UNL1       -0.2712
     28 C         143.5976  135.0453  155.2693 C.3     1  UNL1        0.0722
     29 C         143.3683  133.7525  155.9948 C.3     1  UNL1        0.0188
     30 C         141.9719  133.2940  155.6947 C.3     1  UNL1        0.0188
     31 C         141.3383  134.3034  154.7838 C.3     1  UNL1        0.0722
@<TRIPOS>BOND
     1    18    19    2
     2    19    20   am
     3    20    22    1
     4    22    23    1
     5    23    24    1
     6    19    12    1
     7    12    13   ar
     8    13    14   ar
     9    14    15   ar
    10    15     1    1
    11     1     2   ar
    12     2     3   ar
    13     3     4   ar
    14     4     5   ar
    15     5     6   ar
    16     5     7    1
    17     7     8    1
    18     8     9    1
    19     9    25    1
    20    25    26    1
    21    26    27    1
    22    27    28    1
    23    28    29    1
    24    29    30    1
    25    30    31    1
    26     9    10   am
    27    10    11    2
    28    15    16   ar
    29    16    17   ar
    30    24    22    1
    31    17    12   ar
    32     6     1   ar
    33    31    27    1
    34    10     4    1
    35    20    21    1
@<TRIPOS>MOLECULE
*****
 31 35 0 0 0
SMALL
GASTEIGER

@<TRIPOS>ATOM
      1 C         142.1824  139.8528  161.4998 C.ar    1  UNL1       -0.0003
      2 C         143.5165  139.7433  160.8231 C.ar    1  UNL1        0.0001
      3 C         143.6096  139.1823  159.4351 C.ar    1  UNL1        0.0042
      4 C         142.3685  138.7308  158.7239 C.ar    1  UNL1        0.0497
      5 C         141.0344  138.8403  159.4006 C.ar    1  UNL1       -0.0161
      6 C         140.9413  139.4013  160.7886 C.ar    1  UNL1       -0.0041
      7 C         139.7933  138.3887  158.6894 C.3     1  UNL1        0.0480
      8 C         139.8864  137.8277  157.3014 C.3     1  UNL1        0.0984
      9 N         141.2206  137.7182  156.6246 N.am    1  UNL1       -0.2743
     10 C         142.4616  138.1697  157.3358 C.2     1  UNL1        0.2488
     11 O         143.7958  138.0602  156.6591 O.2     1  UNL1       -0.2699
     12 C         141.9030  141.5360  165.6639 C.ar    1  UNL1        0.0534
     13 C         141.7614  142.4427  164.4773 C.ar    1  UNL1        0.0045
     14 C         141.8545  141.8816  163.0894 C.ar    1  UNL1        0.0001
     15 C         142.0892  140.4138  162.8879 C.ar    1  UNL1       -0.0000
     16 C         142.2308  139.5071  164.0744 C.ar    1  UNL1        0.0001
     17 C         142.1377  140.0682  165.4625 C.ar    1  UNL1        0.0045
     18 O         143.0562  142.3174  167.8570 O.2     1  UNL1       -0.2701
     19 C         141.8098  142.0970  167.0519 C.2     1  UNL1        0.2458
     20 N         140.4704  142.4377  167.6348 N.am    1  UNL1       -0.3025
     21 H         139.6524  142.2930  167.1064 H       1  UNL1        0.1497
     22 C         140.3772  142.9987  169.0228 C.3     1  UNL1        0.0720
     23 C         140.0458  142.8236  170.4752 C.3     1  UNL1        0.0213
     24 C         140.5472  144.1457  169.9745 C.3     1  UNL1        0.0213
     25 C         141.3136  137.1572  155.2366 C.3     1  UNL1        0.1110
     26 C         140.8795  135.7469  154.9670 C.3     1  UNL1        0.0939
     27 N         141.7533  134.6007  155.3826 N.3     1  UNL1       -0.2712
     28 C         143.1696  134.7021  155.8664 C.3     1  UNL1        0.0722
     29 C         143.6559  133.3160  156.1702 C.3     1  UNL1        0.0188
     30 C         142.5402  132.3580  155.8741 C.3     1  UNL1        0.0188
     31 C         141.3644  133.1520  155.3874 C.3     1  UNL1        0.0722
@<TRIPOS>BOND
     1    18    19    2
     2    19    20   am
     3    20    22    1
     4    22    23    1
     5    23    24    1
     6    19    12    1
     7    12    13   ar
     8    13    14   ar
     9    14    15   ar
    10    15     1    1
    11     1     2   ar
    12     2     3   ar
    13     3     4   ar
    14     4     5   ar
    15     5     6   ar
    16     5     7    1
    17     7     8    1
    18     8     9    1
    19     9    25    1
    20    25    26    1
    21    26    27    1
    22    27    28    1
    23    28    29    1
    24    29    30    1
    25    30    31    1
    26     9    10   am
    27    10    11    2
    28    15    16   ar
    29    16    17   ar
    30    24    22    1
    31    17    12   ar
    32     6     1   ar
    33    31    27    1
    34    10     4    1
    35    20    21    1
@<TRIPOS>MOLECULE
*****
 31 35 0 0 0
SMALL
GASTEIGER

@<TRIPOS>ATOM
      1 C         141.8956  141.3008  167.4035 C.ar    1  UNL1       -0.0003
      2 C         140.5228  141.8555  167.6439 C.ar    1  UNL1        0.0001
      3 C         139.9502  142.8741  166.7034 C.ar    1  UNL1        0.0042
      4 C         140.7504  143.3380  165.5226 C.ar    1  UNL1        0.0497
      5 C         142.1232  142.7834  165.2822 C.ar    1  UNL1       -0.0161
      6 C         142.6957  141.7648  166.2226 C.ar    1  UNL1       -0.0041
      7 C         142.9233  143.2473  164.1013 C.3     1  UNL1        0.0480
      8 C         142.3508  144.2660  163.1608 C.3     1  UNL1        0.0984
      9 N         140.9779  144.8207  163.4012 N.am    1  UNL1       -0.2743
     10 C         140.1777  144.3567  164.5821 C.2     1  UNL1        0.2488
     11 O         138.8050  144.9114  164.8225 O.2     1  UNL1       -0.2699
     12 C         143.6135  138.2448  170.2248 C.ar    1  UNL1        0.0534
     13 C         143.4806  137.9267  168.7649 C.ar    1  UNL1        0.0045
     14 C         142.9080  138.9454  167.8245 C.ar    1  UNL1        0.0001
     15 C         142.4682  140.2821  168.3440 C.ar    1  UNL1       -0.0000
     16 C         142.6011  140.6001  169.8038 C.ar    1  UNL1        0.0001
     17 C         143.1737  139.5815  170.7443 C.ar    1  UNL1        0.0045
     18 O         143.4003  135.9947  171.5062 O.2     1  UNL1       -0.2701
     19 C         144.1861  137.2261  171.1652 C.2     1  UNL1        0.2458
     20 N         145.5445  137.4388  171.7646 N.am    1  UNL1       -0.3025
     21 H         146.0603  138.2470  171.5408 H       1  UNL1        0.1497
     22 C         146.1172  136.4201  172.7051 C.3     1  UNL1        0.0720
     23 C         147.0105  136.0754  173.8597 C.3     1  UNL1        0.0213
     24 C         146.2159  135.0004  173.1793 C.3     1  UNL1        0.0213
     25 C         140.4053  145.8393  162.4608 C.3     1  UNL1        0.1110
     26 C         140.2983  145.5317  160.9966 C.3     1  UNL1        0.0939
     27 N         139.6416  144.2616  160.5431 N.3     1  UNL1       -0.2712
     28 C         139.7050  143.6809  159.1615 C.3     1  UNL1        0.0722
     29 C         138.9088  142.4096  159.1561 C.3     1  UNL1        0.0188
     30 C         138.3533  142.2047  160.5343 C.3     1  UNL1        0.0188
     31 C         138.8062  143.3493  161.3915 C.3     1  UNL1        0.0722
@<TRIPOS>BOND
     1    18    19    2
     2    19    20   am
     3    20    22    1
     4    22    23    1
     5    23    24    1
     6    19    12    1
     7    12    13   ar
     8    13    14   ar
     9    14    15   ar
    10    15     1    1
    11     1     2   ar
    12     2     3   ar
    13     3     4   ar
    14     4     5   ar
    15     5     6   ar
    16     5     7    1
    17     7     8    1
    18     8     9    1
    19     9    25    1
    20    25    26    1
    21    26    27    1
    22    27    28    1
    23    28    29    1
    24    29    30    1
    25    30    31    1
    26     9    10   am
    27    10    11    2
    28    15    16   ar
    29    16    17   ar
    30    24    22    1
    31    17    12   ar
    32     6     1   ar
    33    31    27    1
    34    10     4    1
    35    20    21    1
@<TRIPOS>MOLECULE
*****
 31 35 0 0 0
SMALL
GASTEIGER

@<TRIPOS>ATOM
      1 C         140.4142  139.5078  158.6162 C.ar    1  UNL1       -0.0003
      2 C         140.6921  140.9112  158.1656 C.ar    1  UNL1        0.0001
      3 C         140.1951  142.0714  158.9761 C.ar    1  UNL1        0.0042
      4 C         139.4203  141.8282  160.2372 C.ar    1  UNL1        0.0497
      5 C         139.1424  140.4248  160.6879 C.ar    1  UNL1       -0.0161
      6 C         139.6394  139.2646  159.8774 C.ar    1  UNL1       -0.0041
      7 C         138.3676  140.1815  161.9490 C.3     1  UNL1        0.0480
      8 C         137.8707  141.3417  162.7595 C.3     1  UNL1        0.0984
      9 N         138.1485  142.7453  162.3089 N.am    1  UNL1       -0.2743
     10 C         138.9234  142.9885  161.0477 C.2     1  UNL1        0.2488
     11 O         139.2012  144.3919  160.5971 O.2     1  UNL1       -0.2699
     12 C         141.9051  136.0269  156.1848 C.ar    1  UNL1        0.0534
     13 C         142.7779  136.6295  157.2457 C.ar    1  UNL1        0.0045
     14 C         142.2809  137.7897  158.0561 C.ar    1  UNL1        0.0001
     15 C         140.9111  138.3475  157.8057 C.ar    1  UNL1       -0.0000
     16 C         140.0384  137.7450  156.7450 C.ar    1  UNL1        0.0001
     17 C         140.5353  136.5847  155.9345 C.ar    1  UNL1        0.0045
     18 O         142.6737  135.0370  153.9091 O.2     1  UNL1       -0.2701
     19 C         142.4020  134.8667  155.3744 C.2     1  UNL1        0.2458
     20 N         142.6273  133.5362  156.0293 N.am    1  UNL1       -0.3025
     21 H         142.4490  133.4245  156.9910 H       1  UNL1        0.1497
     22 C         143.1243  132.3759  155.2189 C.3     1  UNL1        0.0720
     23 C         143.1149  131.5809  153.9469 C.3     1  UNL1        0.0213
     24 C         143.9944  131.1612  155.0871 C.3     1  UNL1        0.0213
     25 C         137.6516  143.9055  163.1193 C.3     1  UNL1        0.1110
     26 C         138.4628  144.4168  164.2728 C.3     1  UNL1        0.0939
     27 N         139.9520  144.2369  164.2806 N.3     1  UNL1       -0.2712
     28 C         140.7026  143.1284  164.9571 C.3     1  UNL1        0.0722
     29 C         142.1666  143.3403  164.7078 C.3     1  UNL1        0.0188
     30 C         142.3206  144.5799  163.8772 C.3     1  UNL1        0.0188
     31 C         140.9519  145.1340  163.6132 C.3     1  UNL1        0.0722
@<TRIPOS>BOND
     1    18    19    2
     2    19    20   am
     3    20    22    1
     4    22    23    1
     5    23    24    1
     6    19    12    1
     7    12    13   ar
     8    13    14   ar
     9    14    15   ar
    10    15     1    1
    11     1     2   ar
    12     2     3   ar
    13     3     4   ar
    14     4     5   ar
    15     5     6   ar
    16     5     7    1
    17     7     8    1
    18     8     9    1
    19     9    25    1
    20    25    26    1
    21    26    27    1
    22    27    28    1
    23    28    29    1
    24    29    30    1
    25    30    31    1
    26     9    10   am
    27    10    11    2
    28    15    16   ar
    29    16    17   ar
    30    24    22    1
    31    17    12   ar
    32     6     1   ar
    33    31    27    1
    34    10     4    1
    35    20    21    1
@<TRIPOS>MOLECULE
*****
 31 35 0 0 0
SMALL
GASTEIGER

@<TRIPOS>ATOM
      1 C         142.2791  143.5690  161.6831 C.ar    1  UNL1       -0.0003
      2 C         143.1604  144.2965  162.6547 C.ar    1  UNL1        0.0001
      3 C         143.3711  143.7456  164.0338 C.ar    1  UNL1        0.0042
      4 C         142.7006  142.4672  164.4413 C.ar    1  UNL1        0.0497
      5 C         141.8193  141.7397  163.4697 C.ar    1  UNL1       -0.0161
      6 C         141.6086  142.2906  162.0906 C.ar    1  UNL1       -0.0041
      7 C         141.1488  140.4613  163.8773 C.3     1  UNL1        0.0480
      8 C         141.3595  139.9104  165.2564 C.3     1  UNL1        0.0984
      9 N         142.2409  140.6379  166.2281 N.am    1  UNL1       -0.2743
     10 C         142.9114  141.9163  165.8205 C.2     1  UNL1        0.2488
     11 O         143.7927  142.6438  166.7921 O.2     1  UNL1       -0.2699
     12 C         141.6467  145.2217  157.5455 C.ar    1  UNL1        0.0534
     13 C         140.8515  145.7601  158.6979 C.ar    1  UNL1        0.0045
     14 C         141.0623  145.2092  160.0770 C.ar    1  UNL1        0.0001
     15 C         142.0683  144.1199  160.3038 C.ar    1  UNL1       -0.0000
     16 C         142.8635  143.5815  159.1516 C.ar    1  UNL1        0.0001
     17 C         142.6527  144.1324  157.7724 C.ar    1  UNL1        0.0045
     18 O         142.0528  145.0880  154.9829 O.2     1  UNL1       -0.2701
     19 C         141.4359  145.7726  156.1664 C.2     1  UNL1        0.2458
     20 N         140.6082  147.0081  155.9708 N.am    1  UNL1       -0.3025
     21 H         140.2033  147.4575  156.7476 H       1  UNL1        0.1497
     22 C         140.3974  147.5591  154.5916 C.3     1  UNL1        0.0720
     23 C         140.6023  147.4626  153.1088 C.3     1  UNL1        0.0213
     24 C         139.8272  148.6099  153.6856 C.3     1  UNL1        0.0213
     25 C         142.4516  140.0870  167.6072 C.3     1  UNL1        0.1110
     26 C         141.3091  140.0378  168.5779 C.3     1  UNL1        0.0939
     27 N         140.8318  141.2969  169.2389 N.3     1  UNL1       -0.2712
     28 C         139.8122  141.3850  170.3356 C.3     1  UNL1        0.0722
     29 C         139.6405  142.8315  170.6938 C.3     1  UNL1        0.0188
     30 C         140.5540  143.6373  169.8185 C.3     1  UNL1        0.0188
     31 C         141.2902  142.6889  168.9193 C.3     1  UNL1        0.0722
@<TRIPOS>BOND
     1    18    19    2
     2    19    20   am
     3    20    22    1
     4    22    23    1
     5    23    24    1
     6    19    12    1
     7    12    13   ar
     8    13    14   ar
     9    14    15   ar
    10    15     1    1
    11     1     2   ar
    12     2     3   ar
    13     3     4   ar
    14     4     5   ar
    15     5     6   ar
    16     5     7    1
    17     7     8    1
    18     8     9    1
    19     9    25    1
    20    25    26    1
    21    26    27    1
    22    27    28    1
    23    28    29    1
    24    29    30    1
    25    30    31    1
    26     9    10   am
    27    10    11    2
    28    15    16   ar
    29    16    17   ar
    30    24    22    1
    31    17    12   ar
    32     6     1   ar
    33    31    27    1
    34    10     4    1
    35    20    21    1
