@<TRIPOS>MOLECULE
*****
 28 30 0 0 0
SMALL
GASTEIGER

@<TRIPOS>ATOM
      1 C         142.9331  143.0658  164.3678 C.ar    1  UNL1        0.1387
      2 C         143.8171  143.1917  165.5730 C.ar    1  UNL1        0.0371
      3 C         143.4653  142.4698  166.8399 C.ar    1  UNL1        0.0078
      4 C         142.2295  141.6219  166.9016 C.ar    1  UNL1        0.0535
      5 C         141.8777  140.8999  168.1684 C.ar    1  UNL1        0.2254
      6 N         140.6419  140.0520  168.2301 N.ar    1  UNL1       -0.2012
      7 C         139.7578  139.9261  167.0248 C.ar    1  UNL1        0.1522
      8 C         140.1096  140.6481  165.7579 C.ar    1  UNL1        0.0278
      9 C         141.3455  141.4960  165.6963 C.ar    1  UNL1        0.0096
     10 C         141.6973  142.2180  164.4295 C.ar    1  UNL1        0.0371
     11 C         139.2256  140.5222  164.5527 C.ar    1  UNL1        0.0021
     12 C         139.4171  139.3812  163.5980 C.ar    1  UNL1        0.0001
     13 C         138.5330  139.2553  162.3927 C.ar    1  UNL1        0.0000
     14 C         137.4575  140.2704  162.1422 C.ar    1  UNL1        0.0000
     15 C         137.2660  141.4114  163.0969 C.ar    1  UNL1        0.0000
     16 C         138.1500  141.5373  164.3021 C.ar    1  UNL1        0.0001
     17 C         144.5129  143.3990  162.3323 C.3     1  UNL1        0.2525
     18 O         143.2849  143.7878  163.1009 O.3     1  UNL1       -0.4714
     19 C         138.5220  139.0782  167.0865 C.1     1  UNL1        0.1199
     20 N         137.2861  138.2303  167.1482 N.1     1  UNL1       -0.1893
     21 O         142.7617  141.0258  169.3737 O.3     1  UNL1       -0.4575
     22 C         142.3699  141.9364  170.4994 C.3     1  UNL1        0.2386
     23 C         140.9779  141.8846  171.0561 C.3     1  UNL1        0.1835
     24 O         140.6048  140.8203  172.0450 O.3     1  UNL1       -0.3784
     25 H         141.3729  140.2526  172.2143 H       1  UNL1        0.2106
     26 C         139.9591  142.8972  170.6240 C.3     1  UNL1        0.1702
     27 O         138.8692  143.3139  171.5665 O.3     1  UNL1       -0.3794
     28 H         138.2848  142.5591  171.7389 H       1  UNL1        0.2105
@<TRIPOS>BOND
     1    17    18    1
     2    18     1    1
     3     1     2   ar
     4     2     3   ar
     5     3     4   ar
     6     4     5   ar
     7     5    21    1
     8    21    22    1
     9    22    23    1
    10    23    24    1
    11    23    26    1
    12    26    27    1
    13     5     6   ar
    14     6     7   ar
    15     7    19    1
    16    19    20    3
    17     7     8   ar
    18     8    11    1
    19    11    12   ar
    20    12    13   ar
    21    13    14   ar
    22    14    15   ar
    23    15    16   ar
    24     8     9   ar
    25     9    10   ar
    26    10     1   ar
    27     9     4   ar
    28    16    11   ar
    29    24    25    1
    30    27    28    1
@<TRIPOS>MOLECULE
*****
 28 30 0 0 0
SMALL
GASTEIGER

@<TRIPOS>ATOM
      1 C         142.9396  142.2847  163.6055 C.ar    1  UNL1        0.1387
      2 C         143.6323  142.9121  164.7787 C.ar    1  UNL1        0.0371
      3 C         143.1379  142.6490  166.1702 C.ar    1  UNL1        0.0078
      4 C         141.9508  141.7585  166.3885 C.ar    1  UNL1        0.0535
      5 C         141.4563  141.4954  167.7800 C.ar    1  UNL1        0.2254
      6 N         140.2692  140.6049  167.9983 N.ar    1  UNL1       -0.2012
      7 C         139.5765  139.9774  166.8250 C.ar    1  UNL1        0.1522
      8 C         140.0709  140.2405  165.4335 C.ar    1  UNL1        0.0278
      9 C         141.2581  141.1311  165.2153 C.ar    1  UNL1        0.0096
     10 C         141.7525  141.3942  163.8238 C.ar    1  UNL1        0.0371
     11 C         139.3782  139.6131  164.2603 C.ar    1  UNL1        0.0021
     12 C         138.3519  140.3910  163.4913 C.ar    1  UNL1        0.0001
     13 C         137.6592  139.7635  162.3180 C.ar    1  UNL1        0.0000
     14 C         137.9929  138.3581  161.9138 C.ar    1  UNL1        0.0000
     15 C         139.0192  137.5802  162.6828 C.ar    1  UNL1        0.0000
     16 C         139.7119  138.2076  163.8560 C.ar    1  UNL1        0.0001
     17 C         144.5741  143.4965  161.9900 C.3     1  UNL1        0.2525
     18 O         143.4341  142.5478  162.2140 O.3     1  UNL1       -0.4714
     19 C         138.3894  139.0869  167.0433 C.1     1  UNL1        0.1199
     20 N         137.2022  138.1963  167.2616 N.1     1  UNL1       -0.1893
     21 O         142.1490  142.1228  168.9533 O.3     1  UNL1       -0.4575
     22 C         143.1450  141.3309  169.7476 C.3     1  UNL1        0.2386
     23 C         142.6762  140.2395  170.6636 C.3     1  UNL1        0.1835
     24 O         142.3691  140.5458  172.0995 O.3     1  UNL1       -0.3784
     25 H         142.5248  141.4880  172.2696 H       1  UNL1        0.2106
     26 C         142.5146  138.8418  170.1438 C.3     1  UNL1        0.1702
     27 O         143.4015  137.7448  170.6534 O.3     1  UNL1       -0.3794
     28 H         144.3163  137.9151  170.3795 H       1  UNL1        0.2105
@<TRIPOS>BOND
     1    17    18    1
     2    18     1    1
     3     1     2   ar
     4     2     3   ar
     5     3     4   ar
     6     4     5   ar
     7     5    21    1
     8    21    22    1
     9    22    23    1
    10    23    24    1
    11    23    26    1
    12    26    27    1
    13     5     6   ar
    14     6     7   ar
    15     7    19    1
    16    19    20    3
    17     7     8   ar
    18     8    11    1
    19    11    12   ar
    20    12    13   ar
    21    13    14   ar
    22    14    15   ar
    23    15    16   ar
    24     8     9   ar
    25     9    10   ar
    26    10     1   ar
    27     9     4   ar
    28    16    11   ar
    29    24    25    1
    30    27    28    1
@<TRIPOS>MOLECULE
*****
 28 30 0 0 0
SMALL
GASTEIGER

@<TRIPOS>ATOM
      1 C         142.5882  142.7384  164.0871 C.ar    1  UNL1        0.1387
      2 C         141.8149  142.0946  162.9747 C.ar    1  UNL1        0.0371
      3 C         140.6707  141.1772  163.2897 C.ar    1  UNL1        0.0078
      4 C         140.2999  140.9036  164.7172 C.ar    1  UNL1        0.0535
      5 C         139.1557  139.9862  165.0322 C.ar    1  UNL1        0.2254
      6 N         138.7849  139.7126  166.4596 N.ar    1  UNL1       -0.2012
      7 C         139.5582  140.3565  167.5721 C.ar    1  UNL1        0.1522
      8 C         140.7024  141.2739  167.2570 C.ar    1  UNL1        0.0278
      9 C         141.0732  141.5474  165.8295 C.ar    1  UNL1        0.0096
     10 C         142.2174  142.4648  165.5145 C.ar    1  UNL1        0.0371
     11 C         141.4757  141.9177  168.3694 C.ar    1  UNL1        0.0021
     12 C         142.8408  141.4086  168.7264 C.ar    1  UNL1        0.0001
     13 C         143.6141  142.0524  169.8388 C.ar    1  UNL1        0.0000
     14 C         143.0224  143.2053  170.5942 C.ar    1  UNL1        0.0000
     15 C         141.6574  143.7144  170.2372 C.ar    1  UNL1        0.0000
     16 C         140.8840  143.0706  169.1249 C.ar    1  UNL1        0.0001
     17 C         143.5243  145.1413  163.7712 C.3     1  UNL1        0.2525
     18 O         143.7324  143.6558  163.7720 O.3     1  UNL1       -0.4714
     19 C         139.1874  140.0829  168.9995 C.1     1  UNL1        0.1199
     20 N         138.8165  139.8093  170.4270 N.1     1  UNL1       -0.1893
     21 O         138.3824  139.3424  163.9198 O.3     1  UNL1       -0.4575
     22 C         138.7017  137.9386  163.4990 C.3     1  UNL1        0.2386
     23 C         139.7116  137.6911  162.4178 C.3     1  UNL1        0.1835
     24 O         139.2745  137.6229  160.9845 O.3     1  UNL1       -0.3784
     25 H         138.3154  137.7583  160.9322 H       1  UNL1        0.2106
     26 C         141.1587  137.5119  162.7699 C.3     1  UNL1        0.1702
     27 O         142.1474  137.1315  161.7080 O.3     1  UNL1       -0.3794
     28 H         141.9473  136.2391  161.3846 H       1  UNL1        0.2105
@<TRIPOS>BOND
     1    17    18    1
     2    18     1    1
     3     1     2   ar
     4     2     3   ar
     5     3     4   ar
     6     4     5   ar
     7     5    21    1
     8    21    22    1
     9    22    23    1
    10    23    24    1
    11    23    26    1
    12    26    27    1
    13     5     6   ar
    14     6     7   ar
    15     7    19    1
    16    19    20    3
    17     7     8   ar
    18     8    11    1
    19    11    12   ar
    20    12    13   ar
    21    13    14   ar
    22    14    15   ar
    23    15    16   ar
    24     8     9   ar
    25     9    10   ar
    26    10     1   ar
    27     9     4   ar
    28    16    11   ar
    29    24    25    1
    30    27    28    1
@<TRIPOS>MOLECULE
*****
 28 30 0 0 0
SMALL
GASTEIGER

@<TRIPOS>ATOM
      1 C         140.0080  143.4653  163.6496 C.ar    1  UNL1        0.1387
      2 C         139.4360  144.0977  164.8836 C.ar    1  UNL1        0.0371
      3 C         139.7550  143.5292  166.2345 C.ar    1  UNL1        0.0078
      4 C         140.6460  142.3282  166.3515 C.ar    1  UNL1        0.0535
      5 C         140.9650  141.7597  167.7024 C.ar    1  UNL1        0.2254
      6 N         141.8560  140.5588  167.8193 N.ar    1  UNL1       -0.2012
      7 C         142.4281  139.9262  166.5853 C.ar    1  UNL1        0.1522
      8 C         142.1091  140.4948  165.2344 C.ar    1  UNL1        0.0278
      9 C         141.2180  141.6958  165.1175 C.ar    1  UNL1        0.0096
     10 C         140.8990  142.2643  163.7666 C.ar    1  UNL1        0.0371
     11 C         142.6811  139.8623  164.0004 C.ar    1  UNL1        0.0021
     12 C         141.9921  138.6878  163.3713 C.ar    1  UNL1        0.0001
     13 C         142.5641  138.0554  162.1372 C.ar    1  UNL1        0.0000
     14 C         143.8252  138.5974  161.5323 C.ar    1  UNL1        0.0000
     15 C         144.5142  139.7719  162.1615 C.ar    1  UNL1        0.0000
     16 C         143.9422  140.4044  163.3955 C.ar    1  UNL1        0.0001
     17 C         139.5828  145.5188  162.1159 C.3     1  UNL1        0.2525
     18 O         139.6890  144.0338  162.2987 O.3     1  UNL1       -0.4714
     19 C         143.3191  138.7253  166.7023 C.1     1  UNL1        0.1199
     20 N         144.2102  137.5242  166.8192 N.1     1  UNL1       -0.1893
     21 O         140.3930  142.3922  168.9364 O.3     1  UNL1       -0.4575
     22 C         139.6683  141.5497  169.9439 C.3     1  UNL1        0.2386
     23 C         140.4410  140.6615  170.8735 C.3     1  UNL1        0.1835
     24 O         139.8181  139.4016  171.3976 O.3     1  UNL1       -0.3784
     25 H         138.9207  139.3118  171.0407 H       1  UNL1        0.2106
     26 C         141.8365  141.0331  171.2790 C.3     1  UNL1        0.1702
     27 O         142.0780  142.2765  172.0825 O.3     1  UNL1       -0.3794
     28 H         141.8510  143.0548  171.5500 H       1  UNL1        0.2105
@<TRIPOS>BOND
     1    17    18    1
     2    18     1    1
     3     1     2   ar
     4     2     3   ar
     5     3     4   ar
     6     4     5   ar
     7     5    21    1
     8    21    22    1
     9    22    23    1
    10    23    24    1
    11    23    26    1
    12    26    27    1
    13     5     6   ar
    14     6     7   ar
    15     7    19    1
    16    19    20    3
    17     7     8   ar
    18     8    11    1
    19    11    12   ar
    20    12    13   ar
    21    13    14   ar
    22    14    15   ar
    23    15    16   ar
    24     8     9   ar
    25     9    10   ar
    26    10     1   ar
    27     9     4   ar
    28    16    11   ar
    29    24    25    1
    30    27    28    1
@<TRIPOS>MOLECULE
*****
 28 30 0 0 0
SMALL
GASTEIGER

@<TRIPOS>ATOM
      1 C         143.4585  141.8947  164.5291 C.ar    1  UNL1        0.1387
      2 C         143.0919  141.7666  163.0803 C.ar    1  UNL1        0.0371
      3 C         141.8203  141.0752  162.6867 C.ar    1  UNL1        0.0078
      4 C         140.9153  140.5118  163.7419 C.ar    1  UNL1        0.0535
      5 C         139.6437  139.8204  163.3483 C.ar    1  UNL1        0.2254
      6 N         138.7387  139.2570  164.4035 N.ar    1  UNL1       -0.2012
      7 C         139.1053  139.3850  165.8525 C.ar    1  UNL1        0.1522
      8 C         140.3769  140.0765  166.2461 C.ar    1  UNL1        0.0278
      9 C         141.2819  140.6399  165.1907 C.ar    1  UNL1        0.0096
     10 C         142.5535  141.3313  165.5843 C.ar    1  UNL1        0.0371
     11 C         140.7435  140.2045  167.6949 C.ar    1  UNL1        0.0021
     12 C         140.0265  141.1935  168.5654 C.ar    1  UNL1        0.0001
     13 C         140.3932  141.3215  170.0143 C.ar    1  UNL1        0.0000
     14 C         141.4768  140.4606  170.5926 C.ar    1  UNL1        0.0000
     15 C         142.1938  139.4716  169.7221 C.ar    1  UNL1        0.0000
     16 C         141.8272  139.3435  168.2733 C.ar    1  UNL1        0.0001
     17 C         144.6823  143.9613  165.5196 C.3     1  UNL1        0.2525
     18 O         144.7301  142.5861  164.9227 O.3     1  UNL1       -0.4714
     19 C         138.2003  138.8217  166.9077 C.1     1  UNL1        0.1199
     20 N         137.2952  138.2583  167.9630 N.1     1  UNL1       -0.1893
     21 O         139.2770  139.6923  161.8995 O.3     1  UNL1       -0.4575
     22 C         138.3678  140.7019  161.2639 C.3     1  UNL1        0.2386
     23 C         137.7324  141.7716  162.1018 C.3     1  UNL1        0.1835
     24 O         136.6242  141.4220  163.0503 O.3     1  UNL1       -0.3784
     25 H         136.4425  140.4706  162.9987 H       1  UNL1        0.2106
     26 C         138.2053  143.1908  161.9913 C.3     1  UNL1        0.1702
     27 O         137.3844  144.3025  162.5746 O.3     1  UNL1       -0.3794
     28 H         136.5459  144.3727  162.0921 H       1  UNL1        0.2105
@<TRIPOS>BOND
     1    17    18    1
     2    18     1    1
     3     1     2   ar
     4     2     3   ar
     5     3     4   ar
     6     4     5   ar
     7     5    21    1
     8    21    22    1
     9    22    23    1
    10    23    24    1
    11    23    26    1
    12    26    27    1
    13     5     6   ar
    14     6     7   ar
    15     7    19    1
    16    19    20    3
    17     7     8   ar
    18     8    11    1
    19    11    12   ar
    20    12    13   ar
    21    13    14   ar
    22    14    15   ar
    23    15    16   ar
    24     8     9   ar
    25     9    10   ar
    26    10     1   ar
    27     9     4   ar
    28    16    11   ar
    29    24    25    1
    30    27    28    1
@<TRIPOS>MOLECULE
*****
 28 30 0 0 0
SMALL
GASTEIGER

@<TRIPOS>ATOM
      1 C         139.3327  142.8028  164.2138 C.ar    1  UNL1        0.1387
      2 C         139.8324  142.1055  162.9833 C.ar    1  UNL1        0.0371
      3 C         140.7895  140.9573  163.1084 C.ar    1  UNL1        0.0078
      4 C         141.2469  140.5064  164.4639 C.ar    1  UNL1        0.0535
      5 C         142.2040  139.3582  164.5889 C.ar    1  UNL1        0.2254
      6 N         142.6614  138.9073  165.9444 N.ar    1  UNL1       -0.2012
      7 C         142.1617  139.6046  167.1749 C.ar    1  UNL1        0.1522
      8 C         141.2046  140.7528  167.0499 C.ar    1  UNL1        0.0278
      9 C         140.7472  141.2037  165.6943 C.ar    1  UNL1        0.0096
     10 C         139.7901  142.3518  165.5693 C.ar    1  UNL1        0.0371
     11 C         140.7049  141.4500  168.2803 C.ar    1  UNL1        0.0021
     12 C         141.2785  142.7788  168.6746 C.ar    1  UNL1        0.0001
     13 C         140.7788  143.4761  169.9051 C.ar    1  UNL1        0.0000
     14 C         139.7055  142.8446  170.7413 C.ar    1  UNL1        0.0000
     15 C         139.1319  141.5159  170.3471 C.ar    1  UNL1        0.0000
     16 C         139.6316  140.8186  169.1166 C.ar    1  UNL1        0.0001
     17 C         137.8904  144.3789  162.7355 C.3     1  UNL1        0.2525
     18 O         138.3756  143.9509  164.0887 O.3     1  UNL1       -0.4714
     19 C         142.6191  139.1537  168.5304 C.1     1  UNL1        0.1199
     20 N         143.0765  138.7028  169.8860 N.1     1  UNL1       -0.1893
     21 O         142.7037  138.6609  163.3584 O.3     1  UNL1       -0.4575
     22 C         144.0789  138.9545  162.8362 C.3     1  UNL1        0.2386
     23 C         144.4424  140.3502  162.4239 C.3     1  UNL1        0.1835
     24 O         144.1526  140.8197  161.0292 O.3     1  UNL1       -0.3784
     25 H         143.7321  140.1036  160.5278 H       1  UNL1        0.2106
     26 C         145.0958  141.2763  163.4065 C.3     1  UNL1        0.1702
     27 O         146.4819  141.7878  163.1476 O.3     1  UNL1       -0.3794
     28 H         147.1101  141.0493  163.1781 H       1  UNL1        0.2105
@<TRIPOS>BOND
     1    17    18    1
     2    18     1    1
     3     1     2   ar
     4     2     3   ar
     5     3     4   ar
     6     4     5   ar
     7     5    21    1
     8    21    22    1
     9    22    23    1
    10    23    24    1
    11    23    26    1
    12    26    27    1
    13     5     6   ar
    14     6     7   ar
    15     7    19    1
    16    19    20    3
    17     7     8   ar
    18     8    11    1
    19    11    12   ar
    20    12    13   ar
    21    13    14   ar
    22    14    15   ar
    23    15    16   ar
    24     8     9   ar
    25     9    10   ar
    26    10     1   ar
    27     9     4   ar
    28    16    11   ar
    29    24    25    1
    30    27    28    1
@<TRIPOS>MOLECULE
*****
 28 30 0 0 0
SMALL
GASTEIGER

@<TRIPOS>ATOM
      1 C         138.3878  140.2618  164.6123 C.ar    1  UNL1        0.1387
      2 C         138.2565  139.4259  165.8508 C.ar    1  UNL1        0.0371
      3 C         139.3067  139.4985  166.9194 C.ar    1  UNL1        0.0078
      4 C         140.4881  140.4070  166.7494 C.ar    1  UNL1        0.0535
      5 C         141.5383  140.4796  167.8180 C.ar    1  UNL1        0.2254
      6 N         142.7197  141.3881  167.6481 N.ar    1  UNL1       -0.2012
      7 C         142.8510  142.2240  166.4095 C.ar    1  UNL1        0.1522
      8 C         141.8008  142.1514  165.3409 C.ar    1  UNL1        0.0278
      9 C         140.6194  141.2428  165.5109 C.ar    1  UNL1        0.0096
     10 C         139.5692  141.1702  164.4423 C.ar    1  UNL1        0.0371
     11 C         141.9320  142.9872  164.1023 C.ar    1  UNL1        0.0021
     12 C         141.3436  144.3664  164.0623 C.ar    1  UNL1        0.0001
     13 C         141.4748  145.2022  162.8237 C.ar    1  UNL1        0.0000
     14 C         142.1946  144.6589  161.6251 C.ar    1  UNL1        0.0000
     15 C         142.7831  143.2798  161.6650 C.ar    1  UNL1        0.0000
     16 C         142.6518  142.4439  162.9036 C.ar    1  UNL1        0.0001
     17 C         137.7361  140.2120  162.0978 C.3     1  UNL1        0.2525
     18 O         137.3376  140.1892  163.5437 O.3     1  UNL1       -0.4714
     19 C         144.0324  143.1325  166.2395 C.1     1  UNL1        0.1199
     20 N         145.2138  144.0410  166.0695 N.1     1  UNL1       -0.1893
     21 O         141.4070  139.6438  169.0566 O.3     1  UNL1       -0.4575
     22 C         140.9737  140.2763  170.3459 C.3     1  UNL1        0.2386
     23 C         139.7707  141.1719  170.3748 C.3     1  UNL1        0.1835
     24 O         138.3934  140.5795  170.3283 O.3     1  UNL1       -0.3784
     25 H         138.4586  139.6129  170.2816 H       1  UNL1        0.2106
     26 C         139.9450  142.6598  170.4501 C.3     1  UNL1        0.1702
     27 O         139.0523  143.4756  171.3375 O.3     1  UNL1       -0.3794
     28 H         138.1419  143.4354  171.0051 H       1  UNL1        0.2105
@<TRIPOS>BOND
     1    17    18    1
     2    18     1    1
     3     1     2   ar
     4     2     3   ar
     5     3     4   ar
     6     4     5   ar
     7     5    21    1
     8    21    22    1
     9    22    23    1
    10    23    24    1
    11    23    26    1
    12    26    27    1
    13     5     6   ar
    14     6     7   ar
    15     7    19    1
    16    19    20    3
    17     7     8   ar
    18     8    11    1
    19    11    12   ar
    20    12    13   ar
    21    13    14   ar
    22    14    15   ar
    23    15    16   ar
    24     8     9   ar
    25     9    10   ar
    26    10     1   ar
    27     9     4   ar
    28    16    11   ar
    29    24    25    1
    30    27    28    1
@<TRIPOS>MOLECULE
*****
 28 30 0 0 0
SMALL
GASTEIGER

@<TRIPOS>ATOM
      1 C         140.1093  143.3245  164.9781 C.ar    1  UNL1        0.1387
      2 C         140.2108  143.1984  163.4868 C.ar    1  UNL1        0.0371
      3 C         141.0174  142.0881  162.8812 C.ar    1  UNL1        0.0078
      4 C         141.7224  141.1040  163.7668 C.ar    1  UNL1        0.0535
      5 C         142.5290  139.9937  163.1612 C.ar    1  UNL1        0.2254
      6 N         143.2340  139.0096  164.0468 N.ar    1  UNL1       -0.2012
      7 C         143.1325  139.1357  165.5381 C.ar    1  UNL1        0.1522
      8 C         142.3260  140.2459  166.1437 C.ar    1  UNL1        0.0278
      9 C         141.6209  141.2301  165.2580 C.ar    1  UNL1        0.0096
     10 C         140.8143  142.3404  165.8637 C.ar    1  UNL1        0.0371
     11 C         142.2244  140.3721  167.6349 C.ar    1  UNL1        0.0021
     12 C         143.2079  141.2211  168.3845 C.ar    1  UNL1        0.0001
     13 C         143.1064  141.3472  169.8758 C.ar    1  UNL1        0.0000
     14 C         142.0213  140.6243  170.6174 C.ar    1  UNL1        0.0000
     15 C         141.0378  139.7753  169.8679 C.ar    1  UNL1        0.0000
     16 C         141.1393  139.6491  168.3767 C.ar    1  UNL1        0.0001
     17 C         137.9083  144.6996  165.0986 C.3     1  UNL1        0.2525
     18 O         139.3027  144.4348  165.5837 O.3     1  UNL1       -0.4714
     19 C         143.8376  138.1515  166.4237 C.1     1  UNL1        0.1199
     20 N         144.5426  137.1674  167.3094 N.1     1  UNL1       -0.1893
     21 O         142.6305  139.8676  161.6700 O.3     1  UNL1       -0.4575
     22 C         141.6411  139.0264  160.9194 C.3     1  UNL1        0.2386
     23 C         140.8123  138.0119  161.6501 C.3     1  UNL1        0.1835
     24 O         141.4801  136.9448  162.4657 O.3     1  UNL1       -0.3784
     25 H         142.4426  137.0535  162.4143 H       1  UNL1        0.2106
     26 C         139.3156  138.0644  161.5650 C.3     1  UNL1        0.1702
     27 O         138.4807  137.4165  162.6295 O.3     1  UNL1       -0.3794
     28 H         138.6111  136.4557  162.6026 H       1  UNL1        0.2105
@<TRIPOS>BOND
     1    17    18    1
     2    18     1    1
     3     1     2   ar
     4     2     3   ar
     5     3     4   ar
     6     4     5   ar
     7     5    21    1
     8    21    22    1
     9    22    23    1
    10    23    24    1
    11    23    26    1
    12    26    27    1
    13     5     6   ar
    14     6     7   ar
    15     7    19    1
    16    19    20    3
    17     7     8   ar
    18     8    11    1
    19    11    12   ar
    20    12    13   ar
    21    13    14   ar
    22    14    15   ar
    23    15    16   ar
    24     8     9   ar
    25     9    10   ar
    26    10     1   ar
    27     9     4   ar
    28    16    11   ar
    29    24    25    1
    30    27    28    1
@<TRIPOS>MOLECULE
*****
 28 30 0 0 0
SMALL
GASTEIGER

@<TRIPOS>ATOM
      1 C         138.3979  139.2959  165.9751 C.ar    1  UNL1        0.1387
      2 C         138.2789  138.9723  164.5153 C.ar    1  UNL1        0.0371
      3 C         139.2805  139.5190  163.5418 C.ar    1  UNL1        0.0078
      4 C         140.4012  140.3893  164.0281 C.ar    1  UNL1        0.0535
      5 C         141.4029  140.9361  163.0545 C.ar    1  UNL1        0.2254
      6 N         142.5236  141.8064  163.5408 N.ar    1  UNL1       -0.2012
      7 C         142.6427  142.1300  165.0007 C.ar    1  UNL1        0.1522
      8 C         141.6410  141.5833  165.9742 C.ar    1  UNL1        0.0278
      9 C         140.5203  140.7129  165.4879 C.ar    1  UNL1        0.0096
     10 C         139.5186  140.1662  166.4614 C.ar    1  UNL1        0.0371
     11 C         141.7601  141.9069  167.4340 C.ar    1  UNL1        0.0021
     12 C         142.8162  141.2417  168.2660 C.ar    1  UNL1        0.0001
     13 C         142.9352  141.5653  169.7259 C.ar    1  UNL1        0.0000
     14 C         141.9981  142.5541  170.3537 C.ar    1  UNL1        0.0000
     15 C         140.9420  143.2192  169.5218 C.ar    1  UNL1        0.0000
     16 C         140.8230  142.8956  168.0619 C.ar    1  UNL1        0.0001
     17 C         137.2524  137.2663  167.1235 C.3     1  UNL1        0.2525
     18 O         137.3963  138.7491  166.9486 O.3     1  UNL1       -0.4714
     19 C         143.7634  143.0003  165.4870 C.1     1  UNL1        0.1199
     20 N         144.8842  143.8707  165.9733 N.1     1  UNL1       -0.1893
     21 O         141.2839  140.6125  161.5947 O.3     1  UNL1       -0.4575
     22 C         142.1601  139.5579  160.9864 C.3     1  UNL1        0.2386
     23 C         142.6137  138.3912  161.8129 C.3     1  UNL1        0.1835
     24 O         141.6911  137.2310  162.0425 O.3     1  UNL1       -0.3784
     25 H         140.8482  137.3938  161.5909 H       1  UNL1        0.2106
     26 C         143.9898  138.3847  162.4098 C.3     1  UNL1        0.1702
     27 O         144.7082  139.6789  162.6523 O.3     1  UNL1       -0.3794
     28 H         144.9018  140.1053  161.8028 H       1  UNL1        0.2105
@<TRIPOS>BOND
     1    17    18    1
     2    18     1    1
     3     1     2   ar
     4     2     3   ar
     5     3     4   ar
     6     4     5   ar
     7     5    21    1
     8    21    22    1
     9    22    23    1
    10    23    24    1
    11    23    26    1
    12    26    27    1
    13     5     6   ar
    14     6     7   ar
    15     7    19    1
    16    19    20    3
    17     7     8   ar
    18     8    11    1
    19    11    12   ar
    20    12    13   ar
    21    13    14   ar
    22    14    15   ar
    23    15    16   ar
    24     8     9   ar
    25     9    10   ar
    26    10     1   ar
    27     9     4   ar
    28    16    11   ar
    29    24    25    1
    30    27    28    1
