@<TRIPOS>MOLECULE
*****
 37 41 0 0 0
SMALL
GASTEIGER

@<TRIPOS>ATOM
      1 C         141.0720  140.2706  165.1972 C.3     1  UNL1        0.0760
      2 C         142.6677  139.6995  163.2280 C.ar    1  UNL1        0.1351
      3 C         142.9978  139.7538  161.7658 C.ar    1  UNL1        0.0366
      4 C         142.0623  140.4338  160.8105 C.ar    1  UNL1        0.0030
      5 C         142.3924  140.4881  159.3483 C.ar    1  UNL1        0.0006
      6 C         141.4569  141.1680  158.3931 C.ar    1  UNL1        0.0067
      7 C         140.1913  141.7936  158.9000 C.ar    1  UNL1        0.0346
      8 BR        139.2558  142.4735  157.9447 Br      1  UNL1       -0.0490
      9 C         139.8612  141.7392  160.3622 C.ar    1  UNL1        0.0067
     10 C         140.7967  141.0593  161.3174 C.ar    1  UNL1        0.0004
     11 C         140.4666  141.0049  162.7797 C.ar    1  UNL1       -0.0009
     12 C         141.4021  140.3250  163.7350 C.ar    1  UNL1        0.0181
     13 C         145.0088  139.5192  164.3401 C.3     1  UNL1        0.2525
     14 O         143.6032  139.0195  164.1833 O.3     1  UNL1       -0.4717
     15 C         139.9535  139.3964  165.6816 C.ar    1  UNL1       -0.0157
     16 C         139.6621  138.0984  164.9885 C.ar    1  UNL1       -0.0039
     17 C         138.5435  137.2242  165.4729 C.ar    1  UNL1       -0.0003
     18 C         137.7164  137.6479  166.6502 C.ar    1  UNL1       -0.0000
     19 C         138.0077  138.9459  167.3433 C.ar    1  UNL1       -0.0003
     20 C         139.1263  139.8202  166.8590 C.ar    1  UNL1       -0.0039
     21 C         141.8605  141.0904  166.1751 C.3     1  UNL1        0.1162
     22 O         142.4211  139.8352  166.7753 O.3     1  UNL1       -0.3820
     23 H         142.6571  139.9974  167.7020 H       1  UNL1        0.2107
     24 C         141.2998  142.3455  165.5749 C.ar    1  UNL1        0.0084
     25 C         139.8662  142.7161  165.8146 C.ar    1  UNL1       -0.0015
     26 C         139.3055  143.9712  165.2144 C.ar    1  UNL1       -0.0002
     27 C         140.1785  144.8558  164.3745 C.ar    1  UNL1        0.0005
     28 C         141.6121  144.4853  164.1348 C.ar    1  UNL1        0.0063
     29 C         142.7053  145.1554  163.3565 C.ar    1  UNL1        0.0075
     30 C         143.9417  144.3144  163.4757 C.ar    1  UNL1        0.0354
     31 S         143.6125  143.1245  164.3277 S.2     1  UNL1       -0.0867
     32 C         142.1728  143.2301  164.7350 C.ar    1  UNL1        0.0277
     33 C         142.6489  141.9102  167.1529 C.3     1  UNL1        0.0491
     34 C         142.6978  141.5115  168.5982 C.3     1  UNL1        0.0750
     35 N         141.4248  141.2522  169.3481 N.3     1  UNL1       -0.2702
     36 C         141.1966  139.9208  170.0004 C.3     1  UNL1        0.0897
     37 C         140.3802  142.3241  169.4457 C.3     1  UNL1        0.0897
@<TRIPOS>BOND
     1    13    14    1
     2    14     2    1
     3     2     3   ar
     4     3     4   ar
     5     4     5   ar
     6     5     6   ar
     7     6     7   ar
     8     7     8    1
     9     7     9   ar
    10     9    10   ar
    11    10    11   ar
    12    11    12   ar
    13     1    12    1
    14     1    15    1
    15    15    16   ar
    16    16    17   ar
    17    17    18   ar
    18    18    19   ar
    19    19    20   ar
    20     1    21    1
    21    21    22    1
    22    21    33    1
    23    33    34    1
    24    34    35    1
    25    35    36    1
    26    35    37    1
    27    21    24    1
    28    24    25   ar
    29    25    26   ar
    30    26    27   ar
    31    27    28   ar
    32    28    29   ar
    33    29    30   ar
    34    30    31   ar
    35    31    32   ar
    36    12     2   ar
    37    20    15   ar
    38    32    24   ar
    39    10     4   ar
    40    32    28   ar
    41    22    23    1
@<TRIPOS>MOLECULE
*****
 37 41 0 0 0
SMALL
GASTEIGER

@<TRIPOS>ATOM
      1 C         140.8237  141.5865  165.8372 C.3     1  UNL1        0.0760
      2 C         139.9865  143.7387  164.6468 C.ar    1  UNL1        0.1351
      3 C         139.8701  144.5764  163.4080 C.ar    1  UNL1        0.0366
      4 C         140.4745  144.0995  162.1206 C.ar    1  UNL1        0.0030
      5 C         140.3581  144.9372  160.8818 C.ar    1  UNL1        0.0006
      6 C         140.9625  144.4603  159.5945 C.ar    1  UNL1        0.0067
      7 C         141.6833  143.1457  159.5460 C.ar    1  UNL1        0.0346
      8 BR        142.2878  142.6688  158.2586 Br      1  UNL1       -0.0490
      9 C         141.7997  142.3081  160.7848 C.ar    1  UNL1        0.0067
     10 C         141.1953  142.7850  162.0721 C.ar    1  UNL1        0.0004
     11 C         141.3117  141.9473  163.3110 C.ar    1  UNL1       -0.0009
     12 C         140.7073  142.4242  164.5983 C.ar    1  UNL1        0.0181
     13 C         138.2110  145.1527  165.9112 C.3     1  UNL1        0.2525
     14 O         139.3821  144.2156  165.9342 O.3     1  UNL1       -0.4717
     15 C         139.8625  140.4594  166.0736 C.ar    1  UNL1       -0.0157
     16 C         139.4649  139.5625  164.9390 C.ar    1  UNL1       -0.0039
     17 C         138.5037  138.4354  165.1753 C.ar    1  UNL1       -0.0003
     18 C         137.9401  138.2053  166.5462 C.ar    1  UNL1       -0.0000
     19 C         138.3378  139.1023  167.6809 C.ar    1  UNL1       -0.0003
     20 C         139.2990  140.2294  167.4445 C.ar    1  UNL1       -0.0039
     21 C         141.9013  141.8759  166.8398 C.3     1  UNL1        0.1162
     22 O         140.9665  142.7842  167.5822 O.3     1  UNL1       -0.3820
     23 H         141.4790  143.4551  168.0599 H       1  UNL1        0.2107
     24 C         142.8360  140.9676  166.0973 C.ar    1  UNL1        0.0084
     25 C         142.7423  139.4819  166.2816 C.ar    1  UNL1       -0.0015
     26 C         143.6770  138.5736  165.5392 C.ar    1  UNL1       -0.0002
     27 C         144.7054  139.1510  164.6124 C.ar    1  UNL1        0.0005
     28 C         144.7992  140.6366  164.4280 C.ar    1  UNL1        0.0063
     29 C         145.7042  141.4887  163.5885 C.ar    1  UNL1        0.0075
     30 C         145.3288  142.9237  163.8121 C.ar    1  UNL1        0.0354
     31 S         144.1918  142.9585  164.7898 S.2     1  UNL1       -0.0867
     32 C         143.8644  141.5450  165.1705 C.ar    1  UNL1        0.0277
     33 C         142.9788  142.1653  167.8423 C.3     1  UNL1        0.0491
     34 C         142.6236  142.3842  169.2831 C.3     1  UNL1        0.0750
     35 N         141.9760  141.2844  170.0713 N.3     1  UNL1       -0.2702
     36 C         142.5087  139.8849  169.9836 C.3     1  UNL1        0.0897
     37 C         140.7958  141.5840  170.9472 C.3     1  UNL1        0.0897
@<TRIPOS>BOND
     1    13    14    1
     2    14     2    1
     3     2     3   ar
     4     3     4   ar
     5     4     5   ar
     6     5     6   ar
     7     6     7   ar
     8     7     8    1
     9     7     9   ar
    10     9    10   ar
    11    10    11   ar
    12    11    12   ar
    13     1    12    1
    14     1    15    1
    15    15    16   ar
    16    16    17   ar
    17    17    18   ar
    18    18    19   ar
    19    19    20   ar
    20     1    21    1
    21    21    22    1
    22    21    33    1
    23    33    34    1
    24    34    35    1
    25    35    36    1
    26    35    37    1
    27    21    24    1
    28    24    25   ar
    29    25    26   ar
    30    26    27   ar
    31    27    28   ar
    32    28    29   ar
    33    29    30   ar
    34    30    31   ar
    35    31    32   ar
    36    12     2   ar
    37    20    15   ar
    38    32    24   ar
    39    10     4   ar
    40    32    28   ar
    41    22    23    1
@<TRIPOS>MOLECULE
*****
 37 41 0 0 0
SMALL
GASTEIGER

@<TRIPOS>ATOM
      1 C         140.4735  140.7191  165.1227 C.3     1  UNL1        0.0760
      2 C         139.9092  142.3661  163.1942 C.ar    1  UNL1        0.1351
      3 C         139.9854  142.7442  161.7447 C.ar    1  UNL1        0.0366
      4 C         140.7022  141.8532  160.7739 C.ar    1  UNL1        0.0030
      5 C         140.7784  142.2312  159.3243 C.ar    1  UNL1        0.0006
      6 C         141.4952  141.3402  158.3536 C.ar    1  UNL1        0.0067
      7 C         142.1357  140.0712  158.8324 C.ar    1  UNL1        0.0346
      8 BR        142.8525  139.1802  157.8616 Br      1  UNL1       -0.0490
      9 C         142.0595  139.6932  160.2820 C.ar    1  UNL1        0.0067
     10 C         141.3428  140.5841  161.2527 C.ar    1  UNL1        0.0004
     11 C         141.2665  140.2061  162.7023 C.ar    1  UNL1       -0.0009
     12 C         140.5498  141.0971  163.6731 C.ar    1  UNL1        0.0181
     13 C         137.6983  143.1916  164.2809 C.3     1  UNL1        0.2525
     14 O         139.1924  143.2571  164.1651 O.3     1  UNL1       -0.4717
     15 C         139.5809  139.5952  165.5587 C.ar    1  UNL1       -0.0157
     16 C         138.6631  139.7780  166.7310 C.ar    1  UNL1       -0.0039
     17 C         137.7705  138.6542  167.1671 C.ar    1  UNL1       -0.0003
     18 C         137.7955  137.3476  166.4308 C.ar    1  UNL1       -0.0000
     19 C         138.7133  137.1647  165.2585 C.ar    1  UNL1       -0.0003
     20 C         139.6059  138.2886  164.8224 C.ar    1  UNL1       -0.0039
     21 C         141.2899  141.4649  166.1362 C.3     1  UNL1        0.1162
     22 O         140.0666  142.2180  166.5674 O.3     1  UNL1       -0.3820
     23 H         140.3282  143.0775  166.9332 H       1  UNL1        0.2107
     24 C         142.5133  140.7117  165.7050 C.ar    1  UNL1        0.0084
     25 C         142.7036  139.2850  166.1276 C.ar    1  UNL1       -0.0015
     26 C         143.9269  138.5318  165.6964 C.ar    1  UNL1       -0.0002
     27 C         144.9601  139.2052  164.8425 C.ar    1  UNL1        0.0005
     28 C         144.7699  140.6318  164.4199 C.ar    1  UNL1        0.0063
     29 C         145.6108  141.5521  163.5857 C.ar    1  UNL1        0.0075
     30 C         144.9071  142.8741  163.5013 C.ar    1  UNL1        0.0354
     31 S         143.6313  142.7709  164.2834 S.2     1  UNL1       -0.0867
     32 C         143.5465  141.3850  164.8511 C.ar    1  UNL1        0.0277
     33 C         142.1063  142.2107  167.1497 C.3     1  UNL1        0.0491
     34 C         142.0173  141.8438  168.6014 C.3     1  UNL1        0.0750
     35 N         140.8240  142.2615  169.4087 N.3     1  UNL1       -0.2702
     36 C         140.5891  143.7133  169.7038 C.3     1  UNL1        0.0897
     37 C         139.8658  141.2274  169.9210 C.3     1  UNL1        0.0897
@<TRIPOS>BOND
     1    13    14    1
     2    14     2    1
     3     2     3   ar
     4     3     4   ar
     5     4     5   ar
     6     5     6   ar
     7     6     7   ar
     8     7     8    1
     9     7     9   ar
    10     9    10   ar
    11    10    11   ar
    12    11    12   ar
    13     1    12    1
    14     1    15    1
    15    15    16   ar
    16    16    17   ar
    17    17    18   ar
    18    18    19   ar
    19    19    20   ar
    20     1    21    1
    21    21    22    1
    22    21    33    1
    23    33    34    1
    24    34    35    1
    25    35    36    1
    26    35    37    1
    27    21    24    1
    28    24    25   ar
    29    25    26   ar
    30    26    27   ar
    31    27    28   ar
    32    28    29   ar
    33    29    30   ar
    34    30    31   ar
    35    31    32   ar
    36    12     2   ar
    37    20    15   ar
    38    32    24   ar
    39    10     4   ar
    40    32    28   ar
    41    22    23    1
@<TRIPOS>MOLECULE
*****
 37 41 0 0 0
SMALL
GASTEIGER

@<TRIPOS>ATOM
      1 C         140.6182  140.7268  162.5147 C.3     1  UNL1        0.0760
      2 C         139.1517  139.6906  164.3924 C.ar    1  UNL1        0.1351
      3 C         138.8395  139.5147  165.8490 C.ar    1  UNL1        0.0366
      4 C         139.6815  140.1993  166.8845 C.ar    1  UNL1        0.0030
      5 C         139.3693  140.0235  168.3411 C.ar    1  UNL1        0.0006
      6 C         140.2114  140.7081  169.3765 C.ar    1  UNL1        0.0067
      7 C         141.3657  141.5685  168.9555 C.ar    1  UNL1        0.0346
      8 BR        142.2078  142.2531  169.9910 Br      1  UNL1       -0.0490
      9 C         141.6779  141.7443  167.4989 C.ar    1  UNL1        0.0067
     10 C         140.8358  141.0597  166.4635 C.ar    1  UNL1        0.0004
     11 C         141.1480  141.2356  165.0068 C.ar    1  UNL1       -0.0009
     12 C         140.3060  140.5510  163.9714 C.ar    1  UNL1        0.0181
     13 C         138.6617  137.6215  162.8995 C.3     1  UNL1        0.2525
     14 O         138.3096  139.0060  163.3569 O.3     1  UNL1       -0.4717
     15 C         141.7834  140.0052  161.9051 C.ar    1  UNL1       -0.0157
     16 C         142.3917  140.5067  160.6290 C.ar    1  UNL1       -0.0039
     17 C         143.5569  139.7852  160.0193 C.ar    1  UNL1       -0.0003
     18 C         144.1137  138.5622  160.6857 C.ar    1  UNL1       -0.0000
     19 C         143.5054  138.0606  161.9618 C.ar    1  UNL1       -0.0003
     20 C         142.3402  138.7822  162.5715 C.ar    1  UNL1       -0.0039
     21 C         139.7652  141.6241  161.6679 C.3     1  UNL1        0.1162
     22 O         139.2695  140.4321  160.9041 O.3     1  UNL1       -0.3820
     23 H         139.0079  140.7062  160.0111 H       1  UNL1        0.2107
     24 C         140.2609  142.8161  162.4316 C.ar    1  UNL1        0.0084
     25 C         141.6310  143.3636  162.1611 C.ar    1  UNL1       -0.0015
     26 C         142.1267  144.5555  162.9248 C.ar    1  UNL1       -0.0002
     27 C         141.2523  145.2002  163.9592 C.ar    1  UNL1        0.0005
     28 C         139.8822  144.6528  164.2298 C.ar    1  UNL1        0.0063
     29 C         138.8030  145.0745  165.1823 C.ar    1  UNL1        0.0075
     30 C         137.6403  144.1431  165.0073 C.ar    1  UNL1        0.0354
     31 S         138.0009  143.1458  163.9465 S.2     1  UNL1       -0.0867
     32 C         139.3865  143.4607  163.4660 C.ar    1  UNL1        0.0277
     33 C         138.9122  142.5214  160.8210 C.3     1  UNL1        0.0491
     34 C         139.1415  142.5958  159.3405 C.3     1  UNL1        0.0750
     35 N         140.2187  143.4841  158.7921 N.3     1  UNL1       -0.2702
     36 C         140.2166  144.9499  159.1106 C.3     1  UNL1        0.0897
     37 C         141.2980  142.9065  157.9251 C.3     1  UNL1        0.0897
@<TRIPOS>BOND
     1    13    14    1
     2    14     2    1
     3     2     3   ar
     4     3     4   ar
     5     4     5   ar
     6     5     6   ar
     7     6     7   ar
     8     7     8    1
     9     7     9   ar
    10     9    10   ar
    11    10    11   ar
    12    11    12   ar
    13     1    12    1
    14     1    15    1
    15    15    16   ar
    16    16    17   ar
    17    17    18   ar
    18    18    19   ar
    19    19    20   ar
    20     1    21    1
    21    21    22    1
    22    21    33    1
    23    33    34    1
    24    34    35    1
    25    35    36    1
    26    35    37    1
    27    21    24    1
    28    24    25   ar
    29    25    26   ar
    30    26    27   ar
    31    27    28   ar
    32    28    29   ar
    33    29    30   ar
    34    30    31   ar
    35    31    32   ar
    36    12     2   ar
    37    20    15   ar
    38    32    24   ar
    39    10     4   ar
    40    32    28   ar
    41    22    23    1
@<TRIPOS>MOLECULE
*****
 37 41 0 0 0
SMALL
GASTEIGER

@<TRIPOS>ATOM
      1 C         141.9610  141.4097  162.2954 C.3     1  UNL1        0.0760
      2 C         143.3282  142.6259  164.1398 C.ar    1  UNL1        0.1351
      3 C         143.6276  142.8651  165.5900 C.ar    1  UNL1        0.0366
      4 C         142.8591  142.1275  166.6461 C.ar    1  UNL1        0.0030
      5 C         143.1584  142.3667  168.0963 C.ar    1  UNL1        0.0006
      6 C         142.3900  141.6290  169.1523 C.ar    1  UNL1        0.0067
      7 C         141.3221  140.6521  168.7582 C.ar    1  UNL1        0.0346
      8 BR        140.5537  139.9144  169.8143 Br      1  UNL1       -0.0490
      9 C         141.0228  140.4129  167.3080 C.ar    1  UNL1        0.0067
     10 C         141.7912  141.1505  166.2520 C.ar    1  UNL1        0.0004
     11 C         141.4919  140.9113  164.8017 C.ar    1  UNL1       -0.0009
     12 C         142.2603  141.6490  163.7456 C.ar    1  UNL1        0.0181
     13 C         143.9983  144.8574  162.9903 C.3     1  UNL1        0.2525
     14 O         144.0967  143.3636  163.0837 O.3     1  UNL1       -0.4717
     15 C         142.3407  140.1069  161.6562 C.ar    1  UNL1       -0.0157
     16 C         141.6474  139.6552  160.4051 C.ar    1  UNL1       -0.0039
     17 C         142.0270  138.3523  159.7660 C.ar    1  UNL1       -0.0003
     18 C         143.1000  137.5013  160.3778 C.ar    1  UNL1       -0.0000
     19 C         143.7934  137.9531  161.6290 C.ar    1  UNL1       -0.0003
     20 C         143.4137  139.2559  162.2681 C.ar    1  UNL1       -0.0039
     21 C         141.2820  142.4733  161.4843 C.3     1  UNL1        0.1162
     22 O         142.5729  142.7564  160.7748 O.3     1  UNL1       -0.3820
     23 H         142.5773  143.6760  160.4663 H       1  UNL1        0.2107
     24 C         139.9911  142.1902  162.1938 C.ar    1  UNL1        0.0084
     25 C         139.2155  140.9471  161.8724 C.ar    1  UNL1       -0.0015
     26 C         137.9246  140.6640  162.5819 C.ar    1  UNL1       -0.0002
     27 C         137.4093  141.6240  163.6129 C.ar    1  UNL1        0.0005
     28 C         138.1848  142.8670  163.9343 C.ar    1  UNL1        0.0063
     29 C         137.9288  143.9892  164.8962 C.ar    1  UNL1        0.0075
     30 C         139.0615  144.9658  164.7811 C.ar    1  UNL1        0.0354
     31 S         140.0175  144.4473  163.7482 S.2     1  UNL1       -0.0867
     32 C         139.4758  143.1501  163.2248 C.ar    1  UNL1        0.0277
     33 C         140.6030  143.5368  160.6733 C.3     1  UNL1        0.0491
     34 C         141.4209  144.5661  159.9511 C.3     1  UNL1        0.0750
     35 N         141.4580  144.5774  158.4515 N.3     1  UNL1       -0.2702
     36 C         141.9470  145.7938  157.7226 C.3     1  UNL1        0.0897
     37 C         141.0060  143.3725  157.6810 C.3     1  UNL1        0.0897
@<TRIPOS>BOND
     1    13    14    1
     2    14     2    1
     3     2     3   ar
     4     3     4   ar
     5     4     5   ar
     6     5     6   ar
     7     6     7   ar
     8     7     8    1
     9     7     9   ar
    10     9    10   ar
    11    10    11   ar
    12    11    12   ar
    13     1    12    1
    14     1    15    1
    15    15    16   ar
    16    16    17   ar
    17    17    18   ar
    18    18    19   ar
    19    19    20   ar
    20     1    21    1
    21    21    22    1
    22    21    33    1
    23    33    34    1
    24    34    35    1
    25    35    36    1
    26    35    37    1
    27    21    24    1
    28    24    25   ar
    29    25    26   ar
    30    26    27   ar
    31    27    28   ar
    32    28    29   ar
    33    29    30   ar
    34    30    31   ar
    35    31    32   ar
    36    12     2   ar
    37    20    15   ar
    38    32    24   ar
    39    10     4   ar
    40    32    28   ar
    41    22    23    1
@<TRIPOS>MOLECULE
*****
 37 41 0 0 0
SMALL
GASTEIGER

@<TRIPOS>ATOM
      1 C         141.7287  142.3727  162.5633 C.3     1  UNL1        0.0760
      2 C         143.5580  142.5230  164.4021 C.ar    1  UNL1        0.1351
      3 C         143.9474  142.5177  165.8506 C.ar    1  UNL1        0.0366
      4 C         142.8967  142.3566  166.9091 C.ar    1  UNL1        0.0030
      5 C         143.2861  142.3513  168.3576 C.ar    1  UNL1        0.0006
      6 C         142.2354  142.1903  169.4160 C.ar    1  UNL1        0.0067
      7 C         140.7955  142.0346  169.0258 C.ar    1  UNL1        0.0346
      8 BR        139.7448  141.8735  170.0843 Br      1  UNL1       -0.0490
      9 C         140.4061  142.0399  167.5773 C.ar    1  UNL1        0.0067
     10 C         141.4567  142.2009  166.5189 C.ar    1  UNL1        0.0004
     11 C         141.0674  142.2063  165.0703 C.ar    1  UNL1       -0.0009
     12 C         142.1181  142.3673  164.0119 C.ar    1  UNL1        0.0181
     13 C         145.7819  141.7503  163.3032 C.3     1  UNL1        0.2525
     14 O         144.6087  142.6841  163.3436 O.3     1  UNL1       -0.4717
     15 C         141.1254  143.6031  161.9534 C.ar    1  UNL1       -0.0157
     16 C         140.5426  144.6683  162.8341 C.ar    1  UNL1       -0.0039
     17 C         139.9393  145.8987  162.2242 C.ar    1  UNL1       -0.0003
     18 C         139.9188  146.0641  160.7336 C.ar    1  UNL1       -0.0000
     19 C         140.5016  144.9989  159.8527 C.ar    1  UNL1       -0.0003
     20 C         141.1049  143.7684  160.4626 C.ar    1  UNL1       -0.0039
     21 C         141.9427  141.1476  161.7246 C.3     1  UNL1        0.1162
     22 O         143.1735  141.7679  161.1327 O.3     1  UNL1       -0.3820
     23 H         143.3278  141.3999  160.2486 H       1  UNL1        0.2107
     24 C         140.7120  140.5274  162.3165 C.ar    1  UNL1        0.0084
     25 C         139.3566  141.0613  161.9585 C.ar    1  UNL1       -0.0015
     26 C         138.1258  140.4411  162.5504 C.ar    1  UNL1       -0.0002
     27 C         138.2503  139.2869  163.5004 C.ar    1  UNL1        0.0005
     28 C         139.6055  138.7530  163.8584 C.ar    1  UNL1        0.0063
     29 C         140.0377  137.6344  164.7596 C.ar    1  UNL1        0.0075
     30 C         141.5356  137.5633  164.7246 C.ar    1  UNL1        0.0354
     31 S         142.0292  138.6380  163.8018 S.2     1  UNL1       -0.0867
     32 C         140.8364  139.3732  163.2665 C.ar    1  UNL1        0.0277
     33 C         142.1568  139.9226  160.8860 C.3     1  UNL1        0.0491
     34 C         143.4771  139.6970  160.2109 C.3     1  UNL1        0.0750
     35 N         143.5479  139.5981  158.7158 N.3     1  UNL1       -0.2702
     36 C         144.3048  140.6282  157.9310 C.3     1  UNL1        0.0897
     37 C         142.8618  138.4690  158.0056 C.3     1  UNL1        0.0897
@<TRIPOS>BOND
     1    13    14    1
     2    14     2    1
     3     2     3   ar
     4     3     4   ar
     5     4     5   ar
     6     5     6   ar
     7     6     7   ar
     8     7     8    1
     9     7     9   ar
    10     9    10   ar
    11    10    11   ar
    12    11    12   ar
    13     1    12    1
    14     1    15    1
    15    15    16   ar
    16    16    17   ar
    17    17    18   ar
    18    18    19   ar
    19    19    20   ar
    20     1    21    1
    21    21    22    1
    22    21    33    1
    23    33    34    1
    24    34    35    1
    25    35    36    1
    26    35    37    1
    27    21    24    1
    28    24    25   ar
    29    25    26   ar
    30    26    27   ar
    31    27    28   ar
    32    28    29   ar
    33    29    30   ar
    34    30    31   ar
    35    31    32   ar
    36    12     2   ar
    37    20    15   ar
    38    32    24   ar
    39    10     4   ar
    40    32    28   ar
    41    22    23    1
@<TRIPOS>MOLECULE
*****
 37 41 0 0 0
SMALL
GASTEIGER

@<TRIPOS>ATOM
      1 C         141.0534  141.6373  162.9567 C.3     1  UNL1        0.0760
      2 C         140.0681  143.1331  164.8387 C.ar    1  UNL1        0.1351
      3 C         139.9480  143.4807  166.2929 C.ar    1  UNL1        0.0366
      4 C         140.6932  142.6800  167.3195 C.ar    1  UNL1        0.0030
      5 C         140.5731  143.0276  168.7736 C.ar    1  UNL1        0.0006
      6 C         141.3183  142.2269  169.8001 C.ar    1  UNL1        0.0067
      7 C         142.1835  141.0787  169.3724 C.ar    1  UNL1        0.0346
      8 BR        142.9287  140.2780  170.3989 Br      1  UNL1       -0.0490
      9 C         142.3036  140.7311  167.9182 C.ar    1  UNL1        0.0067
     10 C         141.5584  141.5318  166.8917 C.ar    1  UNL1        0.0004
     11 C         141.6785  141.1842  165.4374 C.ar    1  UNL1       -0.0009
     12 C         140.9333  141.9849  164.4110 C.ar    1  UNL1        0.0181
     13 C         137.8293  144.0483  163.8898 C.3     1  UNL1        0.2525
     14 O         139.3229  143.9338  163.8122 O.3     1  UNL1       -0.4717
     15 C         142.3054  141.9794  162.2047 C.ar    1  UNL1       -0.0157
     16 C         143.2578  142.9978  162.7576 C.ar    1  UNL1       -0.0039
     17 C         144.5098  143.3399  162.0056 C.ar    1  UNL1       -0.0003
     18 C         144.8094  142.6636  160.7008 C.ar    1  UNL1       -0.0000
     19 C         143.8570  141.6451  160.1478 C.ar    1  UNL1       -0.0003
     20 C         142.6049  141.3030  160.8998 C.ar    1  UNL1       -0.0039
     21 C         139.9214  140.9477  162.2545 C.3     1  UNL1        0.1162
     22 O         139.6031  142.2170  161.5213 O.3     1  UNL1       -0.3820
     23 H         138.6627  142.2259  161.2835 H       1  UNL1        0.2107
     24 C         140.2398  139.6785  162.9876 C.ar    1  UNL1        0.0084
     25 C         141.3757  138.8124  162.5295 C.ar    1  UNL1       -0.0015
     26 C         141.6941  137.5432  163.2627 C.ar    1  UNL1       -0.0002
     27 C         140.8767  137.1399  164.4540 C.ar    1  UNL1        0.0005
     28 C         139.7408  138.0059  164.9121 C.ar    1  UNL1        0.0063
     29 C         138.7667  137.8678  166.0444 C.ar    1  UNL1        0.0075
     30 C         137.8462  139.0518  166.0109 C.ar    1  UNL1        0.0354
     31 S         138.2515  139.9216  164.8580 S.2     1  UNL1       -0.0867
     32 C         139.4224  139.2753  164.1789 C.ar    1  UNL1        0.0277
     33 C         138.7895  140.2582  161.5522 C.3     1  UNL1        0.0491
     34 C         138.5293  140.5321  160.1006 C.3     1  UNL1        0.0750
     35 N         139.5639  140.1789  159.0735 N.3     1  UNL1       -0.2702
     36 C         140.0746  141.2287  158.1316 C.3     1  UNL1        0.0897
     37 C         140.0876  138.7759  158.9882 C.3     1  UNL1        0.0897
@<TRIPOS>BOND
     1    13    14    1
     2    14     2    1
     3     2     3   ar
     4     3     4   ar
     5     4     5   ar
     6     5     6   ar
     7     6     7   ar
     8     7     8    1
     9     7     9   ar
    10     9    10   ar
    11    10    11   ar
    12    11    12   ar
    13     1    12    1
    14     1    15    1
    15    15    16   ar
    16    16    17   ar
    17    17    18   ar
    18    18    19   ar
    19    19    20   ar
    20     1    21    1
    21    21    22    1
    22    21    33    1
    23    33    34    1
    24    34    35    1
    25    35    36    1
    26    35    37    1
    27    21    24    1
    28    24    25   ar
    29    25    26   ar
    30    26    27   ar
    31    27    28   ar
    32    28    29   ar
    33    29    30   ar
    34    30    31   ar
    35    31    32   ar
    36    12     2   ar
    37    20    15   ar
    38    32    24   ar
    39    10     4   ar
    40    32    28   ar
    41    22    23    1
@<TRIPOS>MOLECULE
*****
 37 41 0 0 0
SMALL
GASTEIGER

@<TRIPOS>ATOM
      1 C         140.9196  141.8728  162.7837 C.3     1  UNL1        0.0760
      2 C         139.4324  140.8410  164.6475 C.ar    1  UNL1        0.1351
      3 C         139.1535  140.5978  166.1011 C.ar    1  UNL1        0.0366
      4 C         140.0828  141.1433  167.1447 C.ar    1  UNL1        0.0030
      5 C         139.8038  140.9002  168.5983 C.ar    1  UNL1        0.0006
      6 C         140.7331  141.4457  169.6417 C.ar    1  UNL1        0.0067
      7 C         141.9413  142.2343  169.2316 C.ar    1  UNL1        0.0346
      8 BR        142.8706  142.7799  170.2752 Br      1  UNL1       -0.0490
      9 C         142.2202  142.4775  167.7780 C.ar    1  UNL1        0.0067
     10 C         141.2910  141.9320  166.7345 C.ar    1  UNL1        0.0004
     11 C         141.5699  142.1752  165.2808 C.ar    1  UNL1       -0.0009
     12 C         140.6406  141.6297  164.2374 C.ar    1  UNL1        0.0181
     13 C         137.3606  141.1306  163.1068 C.3     1  UNL1        0.2525
     14 O         138.5031  140.2955  163.6040 O.3     1  UNL1       -0.4717
     15 C         140.6595  143.2238  162.1859 C.ar    1  UNL1       -0.0157
     16 C         139.7777  144.2035  162.9016 C.ar    1  UNL1       -0.0039
     17 C         139.5176  145.5544  162.3038 C.ar    1  UNL1       -0.0003
     18 C         140.1395  145.9256  160.9903 C.ar    1  UNL1       -0.0000
     19 C         141.0214  144.9459  160.2744 C.ar    1  UNL1       -0.0003
     20 C         141.2815  143.5949  160.8723 C.ar    1  UNL1       -0.0039
     21 C         141.4585  140.7651  161.9279 C.3     1  UNL1        0.1162
     22 O         140.1512  140.6948  161.1957 O.3     1  UNL1       -0.3820
     23 H         140.0257  139.7998  160.8434 H       1  UNL1        0.2107
     24 C         142.7657  140.8354  162.6601 C.ar    1  UNL1        0.0084
     25 C         143.7696  141.8912  162.3029 C.ar    1  UNL1       -0.0015
     26 C         145.0769  141.9615  163.0351 C.ar    1  UNL1       -0.0002
     27 C         145.3803  140.9760  164.1245 C.ar    1  UNL1        0.0005
     28 C         144.3764  139.9203  164.4817 C.ar    1  UNL1        0.0063
     29 C         144.3957  138.8212  165.5023 C.ar    1  UNL1        0.0075
     30 C         143.1004  138.0716  165.4009 C.ar    1  UNL1        0.0354
     31 S         142.2805  138.7074  164.3176 S.2     1  UNL1       -0.0867
     32 C         143.0691  139.8500  163.7495 C.ar    1  UNL1        0.0277
     33 C         141.9974  139.6574  161.0721 C.3     1  UNL1        0.0491
     34 C         141.0625  138.6461  160.4778 C.3     1  UNL1        0.0750
     35 N         140.9764  138.4884  158.9886 N.3     1  UNL1       -0.2702
     36 C         142.1868  138.0705  158.2074 C.3     1  UNL1        0.0897
     37 C         139.6799  138.7486  158.2805 C.3     1  UNL1        0.0897
@<TRIPOS>BOND
     1    13    14    1
     2    14     2    1
     3     2     3   ar
     4     3     4   ar
     5     4     5   ar
     6     5     6   ar
     7     6     7   ar
     8     7     8    1
     9     7     9   ar
    10     9    10   ar
    11    10    11   ar
    12    11    12   ar
    13     1    12    1
    14     1    15    1
    15    15    16   ar
    16    16    17   ar
    17    17    18   ar
    18    18    19   ar
    19    19    20   ar
    20     1    21    1
    21    21    22    1
    22    21    33    1
    23    33    34    1
    24    34    35    1
    25    35    36    1
    26    35    37    1
    27    21    24    1
    28    24    25   ar
    29    25    26   ar
    30    26    27   ar
    31    27    28   ar
    32    28    29   ar
    33    29    30   ar
    34    30    31   ar
    35    31    32   ar
    36    12     2   ar
    37    20    15   ar
    38    32    24   ar
    39    10     4   ar
    40    32    28   ar
    41    22    23    1
@<TRIPOS>MOLECULE
*****
 37 41 0 0 0
SMALL
GASTEIGER

@<TRIPOS>ATOM
      1 C         140.5117  141.3194  163.0894 C.3     1  UNL1        0.0760
      2 C         139.0206  139.9086  164.6821 C.ar    1  UNL1        0.1351
      3 C         138.6104  139.5177  166.0710 C.ar    1  UNL1        0.0366
      4 C         139.2812  140.1467  167.2562 C.ar    1  UNL1        0.0030
      5 C         138.8710  139.7558  168.6450 C.ar    1  UNL1        0.0006
      6 C         139.5418  140.3847  169.8301 C.ar    1  UNL1        0.0067
      7 C         140.6227  141.4046  169.6263 C.ar    1  UNL1        0.0346
      8 BR        141.2935  142.0336  170.8115 Br      1  UNL1       -0.0490
      9 C         141.0329  141.7955  168.2375 C.ar    1  UNL1        0.0067
     10 C         140.3621  141.1666  167.0524 C.ar    1  UNL1        0.0004
     11 C         140.7723  141.5574  165.6635 C.ar    1  UNL1       -0.0009
     12 C         140.1015  140.9285  164.4784 C.ar    1  UNL1        0.0181
     13 C         138.5728  137.8280  163.1919 C.3     1  UNL1        0.2525
     14 O         138.3498  139.2797  163.4970 O.3     1  UNL1       -0.4717
     15 C         140.3724  142.7434  162.6391 C.ar    1  UNL1       -0.0157
     16 C         141.4184  143.3564  161.7560 C.ar    1  UNL1       -0.0039
     17 C         141.2791  144.7804  161.3056 C.ar    1  UNL1       -0.0003
     18 C         140.0939  145.5914  161.7385 C.ar    1  UNL1       -0.0000
     19 C         139.0478  144.9784  162.6217 C.ar    1  UNL1       -0.0003
     20 C         139.1870  143.5544  163.0720 C.ar    1  UNL1       -0.0039
     21 C         141.0610  140.2863  162.1509 C.3     1  UNL1        0.1162
     22 O         139.9866  140.6171  161.1579 O.3     1  UNL1       -0.3820
     23 H         139.8100  139.8418  160.6024 H       1  UNL1        0.2107
     24 C         142.1354  139.9555  163.1440 C.ar    1  UNL1        0.0084
     25 C         141.9099  138.8765  164.1614 C.ar    1  UNL1       -0.0015
     26 C         142.9843  138.5457  165.1545 C.ar    1  UNL1       -0.0002
     27 C         144.2842  139.2938  165.1302 C.ar    1  UNL1        0.0005
     28 C         144.5097  140.3727  164.1128 C.ar    1  UNL1        0.0063
     29 C         145.6793  141.2737  163.8477 C.ar    1  UNL1        0.0075
     30 C         145.3278  142.1614  162.6908 C.ar    1  UNL1        0.0354
     31 S         143.9409  141.8090  162.2409 S.2     1  UNL1       -0.0867
     32 C         143.4353  140.7036  163.1197 C.ar    1  UNL1        0.0277
     33 C         141.6104  139.2532  161.2124 C.3     1  UNL1        0.0491
     34 C         140.6908  138.5235  160.2787 C.3     1  UNL1        0.0750
     35 N         140.8676  138.6574  158.7951 N.3     1  UNL1       -0.2702
     36 C         139.6801  138.9292  157.9199 C.3     1  UNL1        0.0897
     37 C         142.2317  138.5197  158.1869 C.3     1  UNL1        0.0897
@<TRIPOS>BOND
     1    13    14    1
     2    14     2    1
     3     2     3   ar
     4     3     4   ar
     5     4     5   ar
     6     5     6   ar
     7     6     7   ar
     8     7     8    1
     9     7     9   ar
    10     9    10   ar
    11    10    11   ar
    12    11    12   ar
    13     1    12    1
    14     1    15    1
    15    15    16   ar
    16    16    17   ar
    17    17    18   ar
    18    18    19   ar
    19    19    20   ar
    20     1    21    1
    21    21    22    1
    22    21    33    1
    23    33    34    1
    24    34    35    1
    25    35    36    1
    26    35    37    1
    27    21    24    1
    28    24    25   ar
    29    25    26   ar
    30    26    27   ar
    31    27    28   ar
    32    28    29   ar
    33    29    30   ar
    34    30    31   ar
    35    31    32   ar
    36    12     2   ar
    37    20    15   ar
    38    32    24   ar
    39    10     4   ar
    40    32    28   ar
    41    22    23    1
