@<TRIPOS>MOLECULE
*****
 38 41 0 0 0
SMALL
GASTEIGER

@<TRIPOS>ATOM
      1 C         142.4804  142.0484  164.3739 C.ar    1  UNL1        0.1860
      2 N         143.3407  143.0114  165.1371 N.ar    1  UNL1       -0.2232
      3 C         144.1268  144.0580  164.4044 C.ar    1  UNL1        0.1195
      4 C         144.0525  144.1415  162.9086 C.ar    1  UNL1        0.1037
      5 N         143.1923  143.1785  162.1454 N.ar    1  UNL1       -0.2696
      6 C         142.4062  142.1320  162.8780 C.ar    1  UNL1        0.2963
      7 O         141.5458  141.1689  162.1149 O.2     1  UNL1       -0.2636
      8 C         143.1180  143.2621  160.6496 C.ar    1  UNL1        0.0632
      9 C         144.1878  142.6302  159.8091 C.ar    1  UNL1        0.0218
     10 C         144.1135  142.7138  158.3133 C.ar    1  UNL1        0.0548
     11 C         142.9696  143.4291  157.6579 C.ar    1  UNL1        0.0043
     12 C         141.8998  144.0610  158.4984 C.ar    1  UNL1       -0.0027
     13 C         141.9741  143.9774  159.9942 C.ar    1  UNL1       -0.0056
     14 C         140.9043  144.6093  160.8347 C.3     1  UNL1        0.0326
     15 C         145.1833  142.0819  157.4728 C.2     1  UNL1        0.2458
     16 O         145.1879  140.5977  157.2559 O.2     1  UNL1       -0.2701
     17 N         146.2485  142.9342  156.8492 N.am    1  UNL1       -0.3025
     18 H         146.2455  143.9084  156.9916 H       1  UNL1        0.1497
     19 C         147.3183  142.3024  156.0088 C.3     1  UNL1        0.0720
     20 C         147.7411  141.6193  154.7421 C.3     1  UNL1        0.0213
     21 C         148.7483  141.8909  155.8199 C.3     1  UNL1        0.0213
     22 N         141.6943  141.0018  165.1065 N.pl3   1  UNL1       -0.3139
     23 H         141.5383  140.1229  164.6914 H       1  UNL1        0.1485
     24 C         141.1459  141.2944  166.4716 C.3     1  UNL1        0.0776
     25 C         140.0602  142.1271  165.8570 C.3     1  UNL1        0.0243
     26 C         142.2316  140.4618  167.0863 C.3     1  UNL1        0.0243
     27 C         139.7530  140.5663  168.5404 C.ar    1  UNL1        0.1361
     28 C         139.2047  140.8590  169.9056 C.ar    1  UNL1        0.0366
     29 C         139.5008  142.1722  170.5671 C.ar    1  UNL1        0.0031
     30 C         140.3453  143.1929  169.8635 C.ar    1  UNL1       -0.0001
     31 C         140.8936  142.9003  168.4984 C.ar    1  UNL1        0.0003
     32 C         140.5975  141.5870  167.8368 C.ar    1  UNL1        0.0276
     33 O         139.4569  139.2531  167.8789 O.3     1  UNL1       -0.4742
     34 C         138.2279  139.0997  167.0328 C.3     1  UNL1        0.2224
     35 C         138.3579  138.8270  165.5636 C.3     1  UNL1        0.1166
     36 C         140.4510  137.5618  164.6869 C.3     1  UNL1        0.0860
     37 N         139.0063  137.5597  165.0906 N.3     1  UNL1       -0.2932
     38 H         138.9128  136.8812  165.8464 H       1  UNL1        0.1234
@<TRIPOS>BOND
     1    36    37    1
     2    37    35    1
     3    35    34    1
     4    34    33    1
     5    33    27    1
     6    27    28   ar
     7    28    29   ar
     8    29    30   ar
     9    30    31   ar
    10    31    32   ar
    11    32    24    1
    12    24    25    1
    13    24    26    1
    14    24    22    1
    15    22     1    1
    16     1     2   ar
    17     2     3   ar
    18     3     4   ar
    19     4     5   ar
    20     5     8    1
    21     8     9   ar
    22     9    10   ar
    23    10    15    1
    24    15    16    2
    25    15    17   am
    26    17    19    1
    27    19    20    1
    28    20    21    1
    29    10    11   ar
    30    11    12   ar
    31    12    13   ar
    32    13    14    1
    33     5     6   ar
    34     6     7    2
    35    32    27   ar
    36     6     1   ar
    37    13     8   ar
    38    21    19    1
    39    37    38    1
    40    22    23    1
    41    17    18    1
@<TRIPOS>MOLECULE
*****
 38 41 0 0 0
SMALL
GASTEIGER

@<TRIPOS>ATOM
      1 C         144.1680  140.0519  163.2741 C.ar    1  UNL1        0.1860
      2 N         144.9691  141.2749  162.9391 N.ar    1  UNL1       -0.2232
      3 C         144.8449  141.9046  161.5834 C.ar    1  UNL1        0.1195
      4 C         143.9196  141.3113  160.5627 C.ar    1  UNL1        0.1037
      5 N         143.1185  140.0882  160.8978 N.ar    1  UNL1       -0.2696
      6 C         143.2427  139.4585  162.2535 C.ar    1  UNL1        0.2963
      7 O         142.4416  138.2354  162.5886 O.2     1  UNL1       -0.2636
      8 C         142.1932  139.4949  159.8771 C.ar    1  UNL1        0.0632
      9 C         142.7163  138.5117  158.8723 C.ar    1  UNL1        0.0218
     10 C         141.7910  137.9183  157.8516 C.ar    1  UNL1        0.0548
     11 C         140.3426  138.3082  157.8358 C.ar    1  UNL1        0.0043
     12 C         139.8196  139.2913  158.8406 C.ar    1  UNL1       -0.0027
     13 C         140.7449  139.8847  159.8613 C.ar    1  UNL1       -0.0056
     14 C         140.2218  140.8679  160.8662 C.3     1  UNL1        0.0326
     15 C         142.3141  136.9351  156.8467 C.2     1  UNL1        0.2458
     16 O         143.7613  136.9629  156.4534 O.2     1  UNL1       -0.2701
     17 N         141.3899  135.9242  156.2352 N.am    1  UNL1       -0.3025
     18 H         140.4401  135.9060  156.4933 H       1  UNL1        0.1497
     19 C         141.9131  134.9410  155.2304 C.3     1  UNL1        0.0720
     20 C         142.1973  134.5660  153.8062 C.3     1  UNL1        0.0213
     21 C         142.5349  133.6131  154.9143 C.3     1  UNL1        0.0213
     22 N         144.2922  139.4221  164.6299 N.pl3   1  UNL1       -0.3139
     23 H         145.1005  138.9106  164.8629 H       1  UNL1        0.1485
     24 C         143.1848  139.5716  165.6306 C.3     1  UNL1        0.0776
     25 C         143.2370  141.0616  165.4657 C.3     1  UNL1        0.0243
     26 C         143.1326  138.0816  165.7954 C.3     1  UNL1        0.0243
     27 C         140.6506  139.7629  166.1704 C.ar    1  UNL1        0.1361
     28 C         139.5433  139.9123  167.1711 C.ar    1  UNL1        0.0366
     29 C         139.8628  140.0200  168.6327 C.ar    1  UNL1        0.0031
     30 C         141.2895  139.9782  169.0936 C.ar    1  UNL1       -0.0001
     31 C         142.3969  139.8287  168.0929 C.ar    1  UNL1        0.0003
     32 C         142.0774  139.7211  166.6313 C.ar    1  UNL1        0.0276
     33 O         140.3312  139.6552  164.7087 O.3     1  UNL1       -0.4742
     34 C         139.0748  138.9668  164.2644 C.3     1  UNL1        0.2224
     35 C         139.1559  137.6918  163.4784 C.3     1  UNL1        0.1166
     36 C         137.5497  138.6652  161.6832 C.3     1  UNL1        0.0860
     37 N         138.5070  137.5999  162.1291 N.3     1  UNL1       -0.2932
     38 H         139.2599  137.5740  161.4414 H       1  UNL1        0.1234
@<TRIPOS>BOND
     1    36    37    1
     2    37    35    1
     3    35    34    1
     4    34    33    1
     5    33    27    1
     6    27    28   ar
     7    28    29   ar
     8    29    30   ar
     9    30    31   ar
    10    31    32   ar
    11    32    24    1
    12    24    25    1
    13    24    26    1
    14    24    22    1
    15    22     1    1
    16     1     2   ar
    17     2     3   ar
    18     3     4   ar
    19     4     5   ar
    20     5     8    1
    21     8     9   ar
    22     9    10   ar
    23    10    15    1
    24    15    16    2
    25    15    17   am
    26    17    19    1
    27    19    20    1
    28    20    21    1
    29    10    11   ar
    30    11    12   ar
    31    12    13   ar
    32    13    14    1
    33     5     6   ar
    34     6     7    2
    35    32    27   ar
    36     6     1   ar
    37    13     8   ar
    38    21    19    1
    39    37    38    1
    40    22    23    1
    41    17    18    1
@<TRIPOS>MOLECULE
*****
 38 41 0 0 0
SMALL
GASTEIGER

@<TRIPOS>ATOM
      1 C         141.5264  139.5966  160.6568 C.ar    1  UNL1        0.1860
      2 N         140.0756  139.8569  160.3783 N.ar    1  UNL1       -0.2232
      3 C         139.4700  139.4138  159.0796 C.ar    1  UNL1        0.1195
      4 C         140.3150  138.7102  158.0594 C.ar    1  UNL1        0.1037
      5 N         141.7657  138.4498  158.3378 N.ar    1  UNL1       -0.2696
      6 C         142.3714  138.8930  159.6365 C.ar    1  UNL1        0.2963
      7 O         143.8222  138.6327  159.9150 O.2     1  UNL1       -0.2636
      8 C         142.6107  137.7463  157.3176 C.ar    1  UNL1        0.0632
      9 C         142.6261  136.2474  157.2612 C.ar    1  UNL1        0.0218
     10 C         143.4711  135.5439  156.2409 C.ar    1  UNL1        0.0548
     11 C         144.3008  136.3391  155.2771 C.ar    1  UNL1        0.0043
     12 C         144.2855  137.8380  155.3334 C.ar    1  UNL1       -0.0027
     13 C         143.4404  138.5415  156.3537 C.ar    1  UNL1       -0.0056
     14 C         143.4251  140.0405  156.4100 C.3     1  UNL1        0.0326
     15 C         143.4864  134.0450  156.1846 C.2     1  UNL1        0.2458
     16 O         142.2522  133.2972  155.7754 O.2     1  UNL1       -0.2701
     17 N         144.7360  133.2939  156.5375 N.am    1  UNL1       -0.3025
     18 H         145.5460  133.7847  156.8060 H       1  UNL1        0.1497
     19 C         144.7512  131.7951  156.4811 C.3     1  UNL1        0.0720
     20 C         144.6822  130.4682  157.1772 C.3     1  UNL1        0.0213
     21 C         144.8467  130.5259  155.6874 C.3     1  UNL1        0.0213
     22 N         142.1321  140.0398  161.9555 N.pl3   1  UNL1       -0.3139
     23 H         143.0499  140.3955  161.9746 H       1  UNL1        0.1485
     24 C         141.3395  139.9410  163.2252 C.3     1  UNL1        0.0776
     25 C         141.4368  138.4453  163.1695 C.3     1  UNL1        0.0243
     26 C         141.2422  141.4368  163.2808 C.3     1  UNL1        0.0243
     27 C         139.0494  139.7730  164.4407 C.ar    1  UNL1        0.1361
     28 C         138.2569  139.6743  165.7103 C.ar    1  UNL1        0.0366
     29 C         138.9617  139.6449  167.0341 C.ar    1  UNL1        0.0031
     30 C         140.4591  139.7142  167.0883 C.ar    1  UNL1       -0.0001
     31 C         141.2516  139.8129  165.8186 C.ar    1  UNL1        0.0003
     32 C         140.5468  139.8423  164.4948 C.ar    1  UNL1        0.0276
     33 O         138.3446  139.8025  163.1169 O.3     1  UNL1       -0.4742
     34 C         137.4320  140.9437  162.7784 C.3     1  UNL1        0.2224
     35 C         137.7059  142.3118  163.3289 C.3     1  UNL1        0.1166
     36 C         138.4325  144.7423  162.7678 C.3     1  UNL1        0.0860
     37 N         137.6511  143.5084  162.4259 N.3     1  UNL1       -0.2932
     38 H         137.9740  143.2002  161.5088 H       1  UNL1        0.1234
@<TRIPOS>BOND
     1    36    37    1
     2    37    35    1
     3    35    34    1
     4    34    33    1
     5    33    27    1
     6    27    28   ar
     7    28    29   ar
     8    29    30   ar
     9    30    31   ar
    10    31    32   ar
    11    32    24    1
    12    24    25    1
    13    24    26    1
    14    24    22    1
    15    22     1    1
    16     1     2   ar
    17     2     3   ar
    18     3     4   ar
    19     4     5   ar
    20     5     8    1
    21     8     9   ar
    22     9    10   ar
    23    10    15    1
    24    15    16    2
    25    15    17   am
    26    17    19    1
    27    19    20    1
    28    20    21    1
    29    10    11   ar
    30    11    12   ar
    31    12    13   ar
    32    13    14    1
    33     5     6   ar
    34     6     7    2
    35    32    27   ar
    36     6     1   ar
    37    13     8   ar
    38    21    19    1
    39    37    38    1
    40    22    23    1
    41    17    18    1
@<TRIPOS>MOLECULE
*****
 38 41 0 0 0
SMALL
GASTEIGER

@<TRIPOS>ATOM
      1 C         138.6102  139.6852  163.6935 C.ar    1  UNL1        0.1860
      2 N         139.1145  138.2829  163.5226 N.ar    1  UNL1       -0.2232
      3 C         139.6296  137.8284  162.1892 C.ar    1  UNL1        0.1195
      4 C         139.6402  138.7762  161.0266 C.ar    1  UNL1        0.1037
      5 N         139.1359  140.1785  161.1975 N.ar    1  UNL1       -0.2696
      6 C         138.6209  140.6330  162.5309 C.ar    1  UNL1        0.2963
      7 O         138.1165  142.0353  162.7018 O.2     1  UNL1       -0.2636
      8 C         139.1466  141.1262  160.0349 C.ar    1  UNL1        0.0632
      9 C         138.0619  141.0574  159.0011 C.ar    1  UNL1        0.0218
     10 C         138.0726  142.0052  157.8385 C.ar    1  UNL1        0.0548
     11 C         139.1679  143.0218  157.7097 C.ar    1  UNL1        0.0043
     12 C         140.2526  143.0906  158.7434 C.ar    1  UNL1       -0.0027
     13 C         140.2419  142.1429  159.9060 C.ar    1  UNL1       -0.0056
     14 C         141.3267  142.2118  160.9398 C.3     1  UNL1        0.0326
     15 C         136.9878  141.9363  156.8047 C.2     1  UNL1        0.2458
     16 O         136.8471  143.0330  155.7911 O.2     1  UNL1       -0.2701
     17 N         136.0439  140.7707  156.7846 N.am    1  UNL1       -0.3025
     18 H         136.1362  140.0509  157.4499 H       1  UNL1        0.1497
     19 C         134.9592  140.7019  155.7509 C.3     1  UNL1        0.0720
     20 C         133.5142  140.8400  155.3730 C.3     1  UNL1        0.0213
     21 C         134.5255  140.4445  154.3382 C.3     1  UNL1        0.0213
     22 N         138.0951  140.1398  165.0270 N.pl3   1  UNL1       -0.3139
     23 H         137.1774  140.4868  165.1080 H       1  UNL1        0.1485
     24 C         138.9783  140.0656  166.2371 C.3     1  UNL1        0.0776
     25 C         139.6420  141.3481  165.8314 C.3     1  UNL1        0.0243
     26 C         138.3146  138.7831  166.6429 C.3     1  UNL1        0.0243
     27 C         141.3041  139.6075  167.3005 C.ar    1  UNL1        0.1361
     28 C         142.1873  139.5332  168.5107 C.ar    1  UNL1        0.0366
     29 C         141.6278  139.8428  169.8676 C.ar    1  UNL1        0.0031
     30 C         140.1853  140.2266  170.0143 C.ar    1  UNL1       -0.0001
     31 C         139.3021  140.3009  168.8042 C.ar    1  UNL1        0.0003
     32 C         139.8616  139.9913  167.4473 C.ar    1  UNL1        0.0276
     33 O         141.8636  139.2979  165.9436 O.3     1  UNL1       -0.4742
     34 C         143.2484  139.7475  165.5829 C.3     1  UNL1        0.2224
     35 C         143.9763  139.0949  164.4452 C.3     1  UNL1        0.1166
     36 C         145.4627  141.1860  164.0354 C.3     1  UNL1        0.0860
     37 N         145.2365  139.7084  163.9107 N.3     1  UNL1       -0.2932
     38 H         146.0126  139.2503  164.3884 H       1  UNL1        0.1234
@<TRIPOS>BOND
     1    36    37    1
     2    37    35    1
     3    35    34    1
     4    34    33    1
     5    33    27    1
     6    27    28   ar
     7    28    29   ar
     8    29    30   ar
     9    30    31   ar
    10    31    32   ar
    11    32    24    1
    12    24    25    1
    13    24    26    1
    14    24    22    1
    15    22     1    1
    16     1     2   ar
    17     2     3   ar
    18     3     4   ar
    19     4     5   ar
    20     5     8    1
    21     8     9   ar
    22     9    10   ar
    23    10    15    1
    24    15    16    2
    25    15    17   am
    26    17    19    1
    27    19    20    1
    28    20    21    1
    29    10    11   ar
    30    11    12   ar
    31    12    13   ar
    32    13    14    1
    33     5     6   ar
    34     6     7    2
    35    32    27   ar
    36     6     1   ar
    37    13     8   ar
    38    21    19    1
    39    37    38    1
    40    22    23    1
    41    17    18    1
@<TRIPOS>MOLECULE
*****
 38 41 0 0 0
SMALL
GASTEIGER

@<TRIPOS>ATOM
      1 C         142.4435  139.4287  162.0638 C.ar    1  UNL1        0.1860
      2 N         141.0689  140.0263  162.1187 N.ar    1  UNL1       -0.2232
      3 C         140.2213  140.0728  160.8820 C.ar    1  UNL1        0.1195
      4 C         140.7485  139.5216  159.5904 C.ar    1  UNL1        0.1037
      5 N         142.1232  138.9240  159.5355 N.ar    1  UNL1       -0.2696
      6 C         142.9707  138.8776  160.7722 C.ar    1  UNL1        0.2963
      7 O         144.3455  138.2799  160.7174 O.2     1  UNL1       -0.2636
      8 C         142.6504  138.3728  158.2439 C.ar    1  UNL1        0.0632
      9 C         142.6113  136.8954  157.9874 C.ar    1  UNL1        0.0218
     10 C         143.1385  136.3442  156.6958 C.ar    1  UNL1        0.0548
     11 C         143.7047  137.2704  155.6607 C.ar    1  UNL1        0.0043
     12 C         143.7439  138.7478  155.9172 C.ar    1  UNL1       -0.0027
     13 C         143.2167  139.2990  157.2088 C.ar    1  UNL1       -0.0056
     14 C         143.2558  140.7764  157.4653 C.3     1  UNL1        0.0326
     15 C         143.0993  134.8668  156.4393 C.2     1  UNL1        0.2458
     16 O         141.9010  134.2517  155.7792 O.2     1  UNL1       -0.2701
     17 N         144.2585  134.0046  156.8428 N.am    1  UNL1       -0.3025
     18 H         145.0450  134.4083  157.2760 H       1  UNL1        0.1497
     19 C         144.2193  132.5272  156.5863 C.3     1  UNL1        0.0720
     20 C         144.3776  131.3668  155.6491 C.3     1  UNL1        0.0213
     21 C         143.9931  131.1287  157.0793 C.3     1  UNL1        0.0213
     22 N         143.2911  139.3823  163.3006 N.pl3   1  UNL1       -0.3139
     23 H         144.2631  139.2441  163.2264 H       1  UNL1        0.1485
     24 C         142.6579  139.5464  164.6504 C.3     1  UNL1        0.0776
     25 C         143.1471  140.9631  164.7077 C.3     1  UNL1        0.0243
     26 C         142.1686  138.1296  164.5931 C.3     1  UNL1        0.0243
     27 C         140.6097  140.1960  166.1109 C.ar    1  UNL1        0.1361
     28 C         139.9765  140.3600  167.4607 C.ar    1  UNL1        0.0366
     29 C         140.7581  140.0384  168.6999 C.ar    1  UNL1        0.0031
     30 C         142.1730  139.5529  168.5893 C.ar    1  UNL1       -0.0001
     31 C         142.8062  139.3889  167.2395 C.ar    1  UNL1        0.0003
     32 C         142.0246  139.7104  166.0003 C.ar    1  UNL1        0.0276
     33 O         139.8280  140.5175  164.8717 O.3     1  UNL1       -0.4742
     34 C         138.3843  140.1228  164.7721 C.3     1  UNL1        0.2224
     35 C         137.6801  140.1823  163.4490 C.3     1  UNL1        0.1166
     36 C         137.6153  142.6685  162.6974 C.3     1  UNL1        0.0860
     37 N         136.8980  141.4049  163.0700 N.3     1  UNL1       -0.2932
     38 H         136.3192  141.1481  162.2703 H       1  UNL1        0.1234
@<TRIPOS>BOND
     1    36    37    1
     2    37    35    1
     3    35    34    1
     4    34    33    1
     5    33    27    1
     6    27    28   ar
     7    28    29   ar
     8    29    30   ar
     9    30    31   ar
    10    31    32   ar
    11    32    24    1
    12    24    25    1
    13    24    26    1
    14    24    22    1
    15    22     1    1
    16     1     2   ar
    17     2     3   ar
    18     3     4   ar
    19     4     5   ar
    20     5     8    1
    21     8     9   ar
    22     9    10   ar
    23    10    15    1
    24    15    16    2
    25    15    17   am
    26    17    19    1
    27    19    20    1
    28    20    21    1
    29    10    11   ar
    30    11    12   ar
    31    12    13   ar
    32    13    14    1
    33     5     6   ar
    34     6     7    2
    35    32    27   ar
    36     6     1   ar
    37    13     8   ar
    38    21    19    1
    39    37    38    1
    40    22    23    1
    41    17    18    1
@<TRIPOS>MOLECULE
*****
 38 41 0 0 0
SMALL
GASTEIGER

@<TRIPOS>ATOM
      1 C         141.1008  137.8499  163.8367 C.ar    1  UNL1        0.1860
      2 N         139.6152  137.6478  163.8813 N.ar    1  UNL1       -0.2232
      3 C         138.7936  137.8481  162.6425 C.ar    1  UNL1        0.1195
      4 C         139.4576  138.2503  161.3590 C.ar    1  UNL1        0.1037
      5 N         140.9432  138.4524  161.3144 N.ar    1  UNL1       -0.2696
      6 C         141.7649  138.2522  162.5533 C.ar    1  UNL1        0.2963
      7 O         143.2506  138.4542  162.5087 O.2     1  UNL1       -0.2636
      8 C         141.6073  138.8547  160.0310 C.ar    1  UNL1        0.0632
      9 C         141.9082  137.8213  158.9862 C.ar    1  UNL1        0.0218
     10 C         142.5722  138.2236  157.7028 C.ar    1  UNL1        0.0548
     11 C         142.9353  139.6593  157.4641 C.ar    1  UNL1        0.0043
     12 C         142.6343  140.6926  158.5088 C.ar    1  UNL1       -0.0027
     13 C         141.9703  140.2904  159.7923 C.ar    1  UNL1       -0.0056
     14 C         141.6694  141.3238  160.8370 C.3     1  UNL1        0.0326
     15 C         142.8732  137.1902  156.6580 C.2     1  UNL1        0.2458
     16 O         144.1893  137.2120  155.9387 O.2     1  UNL1       -0.2701
     17 N         141.8581  136.1349  156.3326 N.am    1  UNL1       -0.3025
     18 H         140.9943  136.1205  156.8047 H       1  UNL1        0.1497
     19 C         142.1591  135.1015  155.2879 C.3     1  UNL1        0.0720
     20 C         142.6023  134.7493  153.8989 C.3     1  UNL1        0.0213
     21 C         142.2371  133.6638  154.8674 C.3     1  UNL1        0.0213
     22 N         141.9226  137.6497  165.0756 N.pl3   1  UNL1       -0.3139
     23 H         142.2418  136.7495  165.3144 H       1  UNL1        0.1485
     24 C         142.2577  138.8209  165.9507 C.3     1  UNL1        0.0776
     25 C         143.6702  138.3297  166.0671 C.3     1  UNL1        0.0243
     26 C         140.8453  139.3121  165.8343 C.3     1  UNL1        0.0243
     27 C         143.0945  141.2665  166.2137 C.ar    1  UNL1        0.1361
     28 C         143.4296  142.4377  167.0889 C.ar    1  UNL1        0.0366
     29 C         143.2632  142.3347  168.5760 C.ar    1  UNL1        0.0031
     30 C         142.7616  141.0604  169.1881 C.ar    1  UNL1       -0.0001
     31 C         142.4265  139.8892  168.3130 C.ar    1  UNL1        0.0003
     32 C         142.5929  139.9922  166.8258 C.ar    1  UNL1        0.0276
     33 O         143.2609  141.3695  164.7266 O.3     1  UNL1       -0.4742
     34 C         144.6345  141.3720  164.1240 C.3     1  UNL1        0.2224
     35 C         144.8105  141.6435  162.6593 C.3     1  UNL1        0.1166
     36 C         144.1455  144.1548  162.6944 C.3     1  UNL1        0.0860
     37 N         145.0163  143.0488  162.1764 N.3     1  UNL1       -0.2932
     38 H         145.9783  143.3003  162.4037 H       1  UNL1        0.1234
@<TRIPOS>BOND
     1    36    37    1
     2    37    35    1
     3    35    34    1
     4    34    33    1
     5    33    27    1
     6    27    28   ar
     7    28    29   ar
     8    29    30   ar
     9    30    31   ar
    10    31    32   ar
    11    32    24    1
    12    24    25    1
    13    24    26    1
    14    24    22    1
    15    22     1    1
    16     1     2   ar
    17     2     3   ar
    18     3     4   ar
    19     4     5   ar
    20     5     8    1
    21     8     9   ar
    22     9    10   ar
    23    10    15    1
    24    15    16    2
    25    15    17   am
    26    17    19    1
    27    19    20    1
    28    20    21    1
    29    10    11   ar
    30    11    12   ar
    31    12    13   ar
    32    13    14    1
    33     5     6   ar
    34     6     7    2
    35    32    27   ar
    36     6     1   ar
    37    13     8   ar
    38    21    19    1
    39    37    38    1
    40    22    23    1
    41    17    18    1
@<TRIPOS>MOLECULE
*****
 38 41 0 0 0
SMALL
GASTEIGER

@<TRIPOS>ATOM
      1 C         141.8204  144.5683  160.8804 C.ar    1  UNL1        0.1860
      2 N         143.0005  143.7028  160.5516 N.ar    1  UNL1       -0.2232
      3 C         143.2311  143.2541  159.1390 C.ar    1  UNL1        0.1195
      4 C         142.2816  143.6710  158.0552 C.ar    1  UNL1        0.1037
      5 N         141.1015  144.5366  158.3839 N.ar    1  UNL1       -0.2696
      6 C         140.8709  144.9852  159.7965 C.ar    1  UNL1        0.2963
      7 O         139.6907  145.8508  160.1254 O.2     1  UNL1       -0.2636
      8 C         140.1521  144.9535  157.3001 C.ar    1  UNL1        0.0632
      9 C         140.2310  146.3365  156.7250 C.ar    1  UNL1        0.0218
     10 C         139.2815  146.7534  155.6412 C.ar    1  UNL1        0.0548
     11 C         138.2531  145.7873  155.1324 C.ar    1  UNL1        0.0043
     12 C         138.1742  144.4042  155.7075 C.ar    1  UNL1       -0.0027
     13 C         139.1237  143.9873  156.7914 C.ar    1  UNL1       -0.0056
     14 C         139.0447  142.6041  157.3665 C.3     1  UNL1        0.0326
     15 C         139.3604  148.1366  155.0661 C.2     1  UNL1        0.2458
     16 O         139.8487  148.3384  153.6622 O.2     1  UNL1       -0.2701
     17 N         138.9511  149.3179  155.8949 N.am    1  UNL1       -0.3025
     18 H         138.6307  149.1855  156.8163 H       1  UNL1        0.1497
     19 C         139.0301  150.7010  155.3197 C.3     1  UNL1        0.0720
     20 C         138.4104  152.0460  155.0811 C.3     1  UNL1        0.0213
     21 C         139.7866  151.7517  154.5623 C.3     1  UNL1        0.0213
     22 N         141.5897  145.0170  162.2930 N.pl3   1  UNL1       -0.3139
     23 H         141.4910  145.9754  162.4952 H       1  UNL1        0.1485
     24 C         141.5093  144.0054  163.3976 C.3     1  UNL1        0.0776
     25 C         140.2533  143.4483  162.7961 C.3     1  UNL1        0.0243
     26 C         142.7654  144.5624  163.9991 C.3     1  UNL1        0.0243
     27 C         142.2049  141.7137  164.4048 C.ar    1  UNL1        0.1361
     28 C         142.1245  140.7021  165.5094 C.ar    1  UNL1        0.0366
     29 C         141.2684  140.9706  166.7115 C.ar    1  UNL1        0.0031
     30 C         140.4927  142.2507  166.8090 C.ar    1  UNL1       -0.0001
     31 C         140.5730  143.2622  165.7044 C.ar    1  UNL1        0.0003
     32 C         141.4291  142.9937  164.5023 C.ar    1  UNL1        0.0276
     33 O         143.0610  141.4452  163.2027 O.3     1  UNL1       -0.4742
     34 C         144.1462  140.4120  163.2706 C.3     1  UNL1        0.2224
     35 C         143.9608  139.0841  162.5980 C.3     1  UNL1        0.1166
     36 C         143.5753  139.1410  160.0293 C.3     1  UNL1        0.0860
     37 N         144.4699  138.8724  161.2030 N.3     1  UNL1       -0.2932
     38 H         145.2874  139.4725  161.0936 H       1  UNL1        0.1234
@<TRIPOS>BOND
     1    36    37    1
     2    37    35    1
     3    35    34    1
     4    34    33    1
     5    33    27    1
     6    27    28   ar
     7    28    29   ar
     8    29    30   ar
     9    30    31   ar
    10    31    32   ar
    11    32    24    1
    12    24    25    1
    13    24    26    1
    14    24    22    1
    15    22     1    1
    16     1     2   ar
    17     2     3   ar
    18     3     4   ar
    19     4     5   ar
    20     5     8    1
    21     8     9   ar
    22     9    10   ar
    23    10    15    1
    24    15    16    2
    25    15    17   am
    26    17    19    1
    27    19    20    1
    28    20    21    1
    29    10    11   ar
    30    11    12   ar
    31    12    13   ar
    32    13    14    1
    33     5     6   ar
    34     6     7    2
    35    32    27   ar
    36     6     1   ar
    37    13     8   ar
    38    21    19    1
    39    37    38    1
    40    22    23    1
    41    17    18    1
@<TRIPOS>MOLECULE
*****
 38 41 0 0 0
SMALL
GASTEIGER

@<TRIPOS>ATOM
      1 C         142.9490  140.4301  163.9489 C.ar    1  UNL1        0.1860
      2 N         141.8535  139.4065  163.9063 N.ar    1  UNL1       -0.2232
      3 C         141.0742  139.1941  162.6424 C.ar    1  UNL1        0.1195
      4 C         141.3905  140.0053  161.4210 C.ar    1  UNL1        0.1037
      5 N         142.4861  141.0290  161.4635 N.ar    1  UNL1       -0.2696
      6 C         143.2654  141.2414  162.7275 C.ar    1  UNL1        0.2963
      7 O         144.3610  142.2650  162.7700 O.2     1  UNL1       -0.2636
      8 C         142.8024  141.8402  160.2421 C.ar    1  UNL1        0.0632
      9 C         143.9168  141.4198  159.3304 C.ar    1  UNL1        0.0218
     10 C         144.2331  142.2310  158.1090 C.ar    1  UNL1        0.0548
     11 C         143.4350  143.4627  157.7993 C.ar    1  UNL1        0.0043
     12 C         142.3206  143.8831  158.7110 C.ar    1  UNL1       -0.0027
     13 C         142.0043  143.0719  159.9324 C.ar    1  UNL1       -0.0056
     14 C         140.8898  143.4924  160.8441 C.3     1  UNL1        0.0326
     15 C         145.3476  141.8105  157.1973 C.2     1  UNL1        0.2458
     16 O         145.4527  140.3825  156.7504 O.2     1  UNL1       -0.2701
     17 N         146.3570  142.8180  156.7325 N.am    1  UNL1       -0.3025
     18 H         146.2880  143.7553  157.0258 H       1  UNL1        0.1497
     19 C         147.4714  142.3975  155.8208 C.3     1  UNL1        0.0720
     20 C         148.0620  142.3125  154.4446 C.3     1  UNL1        0.0213
     21 C         148.8111  141.7541  155.6180 C.3     1  UNL1        0.0213
     22 N         143.7284  140.6426  165.2129 N.pl3   1  UNL1       -0.3139
     23 H         144.6729  140.3690  165.2607 H       1  UNL1        0.1485
     24 C         143.0687  141.2719  166.4039 C.3     1  UNL1        0.0776
     25 C         142.7243  139.9109  166.9323 C.3     1  UNL1        0.0243
     26 C         143.4130  142.6328  165.8756 C.3     1  UNL1        0.0243
     27 C         140.9222  142.0998  167.6112 C.ar    1  UNL1        0.1361
     28 C         140.2625  142.7291  168.8023 C.ar    1  UNL1        0.0366
     29 C         141.0896  143.1600  169.9772 C.ar    1  UNL1        0.0031
     30 C         142.5762  142.9615  169.9610 C.ar    1  UNL1       -0.0001
     31 C         143.2359  142.3321  168.7699 C.ar    1  UNL1        0.0003
     32 C         142.4089  141.9013  167.5950 C.ar    1  UNL1        0.0276
     33 O         140.0952  141.6689  166.4363 O.3     1  UNL1       -0.4742
     34 C         139.8526  142.6189  165.3012 C.3     1  UNL1        0.2224
     35 C         139.5298  144.0565  165.5822 C.3     1  UNL1        0.1166
     36 C         138.3823  144.6072  163.3172 C.3     1  UNL1        0.0860
     37 N         139.2848  145.0060  164.4470 N.3     1  UNL1       -0.2932
     38 H         138.8910  145.8548  164.8529 H       1  UNL1        0.1234
@<TRIPOS>BOND
     1    36    37    1
     2    37    35    1
     3    35    34    1
     4    34    33    1
     5    33    27    1
     6    27    28   ar
     7    28    29   ar
     8    29    30   ar
     9    30    31   ar
    10    31    32   ar
    11    32    24    1
    12    24    25    1
    13    24    26    1
    14    24    22    1
    15    22     1    1
    16     1     2   ar
    17     2     3   ar
    18     3     4   ar
    19     4     5   ar
    20     5     8    1
    21     8     9   ar
    22     9    10   ar
    23    10    15    1
    24    15    16    2
    25    15    17   am
    26    17    19    1
    27    19    20    1
    28    20    21    1
    29    10    11   ar
    30    11    12   ar
    31    12    13   ar
    32    13    14    1
    33     5     6   ar
    34     6     7    2
    35    32    27   ar
    36     6     1   ar
    37    13     8   ar
    38    21    19    1
    39    37    38    1
    40    22    23    1
    41    17    18    1
@<TRIPOS>MOLECULE
*****
 38 41 0 0 0
SMALL
GASTEIGER

@<TRIPOS>ATOM
      1 C         140.0419  138.5321  163.4101 C.ar    1  UNL1        0.1860
      2 N         141.2058  137.6499  163.0681 N.ar    1  UNL1       -0.2232
      3 C         141.8804  137.7815  161.7349 C.ar    1  UNL1        0.1195
      4 C         141.3910  138.7953  160.7435 C.ar    1  UNL1        0.1037
      5 N         140.2270  139.6775  161.0854 N.ar    1  UNL1       -0.2696
      6 C         139.5525  139.5459  162.4187 C.ar    1  UNL1        0.2963
      7 O         138.3885  140.4281  162.7607 O.2     1  UNL1       -0.2636
      8 C         139.7376  140.6912  160.0941 C.ar    1  UNL1        0.0632
      9 C         138.8428  140.2672  158.9674 C.ar    1  UNL1        0.0218
     10 C         138.3534  141.2809  157.9761 C.ar    1  UNL1        0.0548
     11 C         138.7588  142.7187  158.1114 C.ar    1  UNL1        0.0043
     12 C         139.6536  143.1428  159.2381 C.ar    1  UNL1       -0.0027
     13 C         140.1430  142.1290  160.2294 C.ar    1  UNL1       -0.0056
     14 C         141.0379  142.5531  161.3562 C.3     1  UNL1        0.0326
     15 C         137.4585  140.8568  156.8493 C.2     1  UNL1        0.2458
     16 O         137.7951  139.6381  156.0423 O.2     1  UNL1       -0.2701
     17 N         136.2272  141.6515  156.5297 N.am    1  UNL1       -0.3025
     18 H         136.0063  142.4514  157.0594 H       1  UNL1        0.1497
     19 C         135.3324  141.2274  155.4030 C.3     1  UNL1        0.0720
     20 C         134.3789  140.2366  154.8038 C.3     1  UNL1        0.0213
     21 C         134.7360  141.4837  154.0507 C.3     1  UNL1        0.0213
     22 N         139.3673  138.4005  164.7434 N.pl3   1  UNL1       -0.3139
     23 H         138.7529  137.6500  164.9123 H       1  UNL1        0.1485
     24 C         139.6287  139.4125  165.8193 C.3     1  UNL1        0.0776
     25 C         141.1045  139.1890  165.6708 C.3     1  UNL1        0.0243
     26 C         138.1529  139.6359  165.9677 C.3     1  UNL1        0.0243
     27 C         140.0978  141.8656  166.5350 C.ar    1  UNL1        0.1361
     28 C         140.3592  142.8775  167.6109 C.ar    1  UNL1        0.0366
     29 C         140.4129  142.4482  169.0472 C.ar    1  UNL1        0.0031
     30 C         140.2053  141.0070  169.4075 C.ar    1  UNL1       -0.0001
     31 C         139.9439  139.9952  168.3315 C.ar    1  UNL1        0.0003
     32 C         139.8901  140.4244  166.8953 C.ar    1  UNL1        0.0276
     33 O         140.0440  142.2949  165.0987 O.3     1  UNL1       -0.4742
     34 C         139.0262  143.3034  164.6549 C.3     1  UNL1        0.2224
     35 C         139.4702  144.6418  164.1434 C.3     1  UNL1        0.1166
     36 C         139.8388  146.0674  162.0028 C.3     1  UNL1        0.0860
     37 N         138.9877  145.1330  162.8106 N.3     1  UNL1       -0.2932
     38 H         138.8268  144.3076  162.2333 H       1  UNL1        0.1234
@<TRIPOS>BOND
     1    36    37    1
     2    37    35    1
     3    35    34    1
     4    34    33    1
     5    33    27    1
     6    27    28   ar
     7    28    29   ar
     8    29    30   ar
     9    30    31   ar
    10    31    32   ar
    11    32    24    1
    12    24    25    1
    13    24    26    1
    14    24    22    1
    15    22     1    1
    16     1     2   ar
    17     2     3   ar
    18     3     4   ar
    19     4     5   ar
    20     5     8    1
    21     8     9   ar
    22     9    10   ar
    23    10    15    1
    24    15    16    2
    25    15    17   am
    26    17    19    1
    27    19    20    1
    28    20    21    1
    29    10    11   ar
    30    11    12   ar
    31    12    13   ar
    32    13    14    1
    33     5     6   ar
    34     6     7    2
    35    32    27   ar
    36     6     1   ar
    37    13     8   ar
    38    21    19    1
    39    37    38    1
    40    22    23    1
    41    17    18    1
