@<TRIPOS>MOLECULE
*****
 35 38 0 0 0
SMALL
GASTEIGER

@<TRIPOS>ATOM
      1 C         139.3521  138.1854  164.0385 C.ar    1  UNL1        0.1534
      2 C         138.4956  138.1287  165.2685 C.ar    1  UNL1        0.0591
      3 C         138.8987  138.8862  166.4988 C.ar    1  UNL1        0.1072
      4 N         138.0421  138.8294  167.7289 N.ar    1  UNL1       -0.1477
      5 N         138.4453  139.5869  168.9592 N.ar    1  UNL1       -0.1421
      6 C         139.7051  140.4012  168.9594 C.ar    1  UNL1        0.1690
      7 C         140.5616  140.4580  167.7293 C.ar    1  UNL1        0.0740
      8 C         140.1584  139.7005  166.4990 C.ar    1  UNL1        0.0359
      9 C         141.0149  139.7573  165.2690 C.ar    1  UNL1        0.0204
     10 C         140.6118  138.9997  164.0387 C.ar    1  UNL1        0.0824
     11 N         141.4684  139.0566  162.8086 N.pl3   1  UNL1       -0.3050
     12 C         142.5574  138.0452  162.6057 C.3     1  UNL1        0.0934
     13 C         143.4140  138.1020  161.3757 C.3     1  UNL1        0.0510
     14 C         143.1815  139.1702  160.3484 C.3     1  UNL1        0.1188
     15 C         142.0925  140.1815  160.5513 C.3     1  UNL1        0.0510
     16 C         141.2359  140.1247  161.7814 C.3     1  UNL1        0.0934
     17 O         144.0381  139.2269  159.1184 O.3     1  UNL1       -0.3535
     18 C         143.8201  140.3082  158.1019 C.3     1  UNL1        0.1740
     19 C         140.1082  141.1587  170.1897 C.2     1  UNL1        0.2635
     20 N         140.4082  140.4203  171.4605 N.am    1  UNL1       -0.3240
     21 O         140.2114  142.6546  170.1492 O.2     1  UNL1       -0.2686
     22 H         140.3405  139.4385  171.4870 H       1  UNL1        0.1453
     23 H         140.6728  140.9175  172.2680 H       1  UNL1        0.1453
     24 C         138.0665  138.0768  161.7834 C.3     1  UNL1        0.2525
     25 O         138.9489  137.4279  162.8082 O.3     1  UNL1       -0.4701
     26 N         141.8213  141.2723  167.7296 N.pl3   1  UNL1       -0.3094
     27 H         142.4390  141.2233  168.4946 H       1  UNL1        0.1523
     28 C         142.1399  142.1614  166.5641 C.ar    1  UNL1        0.0761
     29 C         143.5311  142.1943  166.0043 C.ar    1  UNL1        0.0166
     30 C         143.8497  143.0833  164.8389 C.ar    1  UNL1       -0.0028
     31 C         142.7771  143.9394  164.2333 C.ar    1  UNL1       -0.0195
     32 C         143.0957  144.8284  163.0680 C.3     1  UNL1        0.0311
     33 C         141.3859  143.9065  164.7932 C.ar    1  UNL1        0.0267
     34 C         141.0673  143.0174  165.9586 C.ar    1  UNL1        0.1531
     35 F         139.6761  142.9845  166.5185 F       1  UNL1       -0.2029
@<TRIPOS>BOND
     1    24    25    1
     2    25     1    1
     3     1     2   ar
     4     2     3   ar
     5     3     4   ar
     6     4     5   ar
     7     5     6   ar
     8     6    19    1
     9    19    20   am
    10    19    21    2
    11     6     7   ar
    12     7    26    1
    13    26    28    1
    14    28    29   ar
    15    29    30   ar
    16    30    31   ar
    17    31    32    1
    18    31    33   ar
    19    33    34   ar
    20    34    35    1
    21     7     8   ar
    22     8     9   ar
    23     9    10   ar
    24    10    11    1
    25    11    12    1
    26    12    13    1
    27    13    14    1
    28    14    17    1
    29    17    18    1
    30    14    15    1
    31    15    16    1
    32    10     1   ar
    33    16    11    1
    34     8     3   ar
    35    34    28   ar
    36    20    22    1
    37    20    23    1
    38    26    27    1
@<TRIPOS>MOLECULE
*****
 35 38 0 0 0
SMALL
GASTEIGER

@<TRIPOS>ATOM
      1 C         138.1875  141.1726  162.9605 C.ar    1  UNL1        0.1534
      2 C         137.6194  140.2624  164.0088 C.ar    1  UNL1        0.0591
      3 C         138.2810  140.1593  165.3510 C.ar    1  UNL1        0.1072
      4 N         137.7128  139.2491  166.3993 N.ar    1  UNL1       -0.1477
      5 N         138.3744  139.1460  167.7415 N.ar    1  UNL1       -0.1421
      6 C         139.6041  139.9531  168.0355 C.ar    1  UNL1        0.1690
      7 C         140.1722  140.8633  166.9873 C.ar    1  UNL1        0.0740
      8 C         139.5106  140.9664  165.6450 C.ar    1  UNL1        0.0359
      9 C         140.0787  141.8765  164.5968 C.ar    1  UNL1        0.0204
     10 C         139.4171  141.9796  163.2546 C.ar    1  UNL1        0.0824
     11 N         139.9853  142.8899  162.2063 N.pl3   1  UNL1       -0.3050
     12 C         140.9919  142.3671  161.2248 C.3     1  UNL1        0.0934
     13 C         141.5601  143.2772  160.1765 C.3     1  UNL1        0.0510
     14 C         141.1216  144.7102  160.1098 C.3     1  UNL1        0.1188
     15 C         140.1149  145.2330  161.0913 C.3     1  UNL1        0.0510
     16 C         139.5468  144.3227  162.1396 C.3     1  UNL1        0.0934
     17 O         141.6897  145.6204  159.0616 O.3     1  UNL1       -0.3535
     18 C         140.9327  145.8643  157.7898 C.3     1  UNL1        0.1740
     19 C         140.2657  139.8500  169.3778 C.2     1  UNL1        0.2635
     20 N         139.4378  139.8983  170.6277 N.am    1  UNL1       -0.3240
     21 O         141.7552  139.6987  169.4702 O.2     1  UNL1       -0.2686
     22 H         138.4602  139.9977  170.5671 H       1  UNL1        0.1453
     23 H         139.8720  139.8307  171.5087 H       1  UNL1        0.1453
     24 C         137.6536  140.1536  160.6310 C.3     1  UNL1        0.2525
     25 O         137.5259  141.2757  161.6183 O.3     1  UNL1       -0.4701
     26 N         141.4019  141.6704  167.2813 N.pl3   1  UNL1       -0.3094
     27 H         141.4543  142.2048  168.1065 H       1  UNL1        0.1523
     28 C         142.5519  141.6631  166.3182 C.ar    1  UNL1        0.0761
     29 C         143.1692  142.9572  165.8775 C.ar    1  UNL1        0.0166
     30 C         144.3191  142.9500  164.9144 C.ar    1  UNL1       -0.0028
     31 C         144.8517  141.6486  164.3919 C.ar    1  UNL1       -0.0195
     32 C         146.0017  141.6414  163.4288 C.3     1  UNL1        0.0311
     33 C         144.2344  140.3545  164.8326 C.ar    1  UNL1        0.0267
     34 C         143.0844  140.3618  165.7958 C.ar    1  UNL1        0.1531
     35 F         142.4670  139.0677  166.2364 F       1  UNL1       -0.2029
@<TRIPOS>BOND
     1    24    25    1
     2    25     1    1
     3     1     2   ar
     4     2     3   ar
     5     3     4   ar
     6     4     5   ar
     7     5     6   ar
     8     6    19    1
     9    19    20   am
    10    19    21    2
    11     6     7   ar
    12     7    26    1
    13    26    28    1
    14    28    29   ar
    15    29    30   ar
    16    30    31   ar
    17    31    32    1
    18    31    33   ar
    19    33    34   ar
    20    34    35    1
    21     7     8   ar
    22     8     9   ar
    23     9    10   ar
    24    10    11    1
    25    11    12    1
    26    12    13    1
    27    13    14    1
    28    14    17    1
    29    17    18    1
    30    14    15    1
    31    15    16    1
    32    10     1   ar
    33    16    11    1
    34     8     3   ar
    35    34    28   ar
    36    20    22    1
    37    20    23    1
    38    26    27    1
@<TRIPOS>MOLECULE
*****
 35 38 0 0 0
SMALL
GASTEIGER

@<TRIPOS>ATOM
      1 C         143.8854  142.0749  164.4699 C.ar    1  UNL1        0.1534
      2 C         143.7766  142.6021  165.8700 C.ar    1  UNL1        0.0591
      3 C         142.7913  141.9962  166.8250 C.ar    1  UNL1        0.1072
      4 N         142.6825  142.5234  168.2252 N.ar    1  UNL1       -0.1477
      5 N         141.6972  141.9176  169.1802 N.ar    1  UNL1       -0.1421
      6 C         140.8207  140.7846  168.7352 C.ar    1  UNL1        0.1690
      7 C         140.9294  140.2575  167.3351 C.ar    1  UNL1        0.0740
      8 C         141.9147  140.8633  166.3800 C.ar    1  UNL1        0.0359
      9 C         142.0235  140.3362  164.9800 C.ar    1  UNL1        0.0204
     10 C         143.0088  140.9420  164.0249 C.ar    1  UNL1        0.0824
     11 N         143.1176  140.4148  162.6248 N.pl3   1  UNL1       -0.3050
     12 C         144.0547  139.2839  162.3198 C.3     1  UNL1        0.0934
     13 C         144.1635  138.7567  160.9198 C.3     1  UNL1        0.0510
     14 C         143.3351  139.3604  159.8246 C.3     1  UNL1        0.1188
     15 C         142.3980  140.4912  160.1295 C.3     1  UNL1        0.0510
     16 C         142.2892  141.0184  161.5296 C.3     1  UNL1        0.0934
     17 O         143.4439  138.8332  158.4245 O.3     1  UNL1       -0.3535
     18 C         142.6438  137.6338  158.0104 C.3     1  UNL1        0.1740
     19 C         139.8354  140.1788  169.6903 C.2     1  UNL1        0.2635
     20 N         140.1768  140.0619  171.1462 N.am    1  UNL1       -0.3240
     21 O         138.5087  139.6900  169.1894 O.2     1  UNL1       -0.2686
     22 H         141.0476  140.3827  171.4750 H       1  UNL1        0.1453
     23 H         139.5301  139.6643  171.7731 H       1  UNL1        0.1453
     24 C         144.4562  143.8207  162.6325 C.3     1  UNL1        0.2525
     25 O         144.8707  142.6807  163.5148 O.3     1  UNL1       -0.4701
     26 N         140.0529  139.1245  166.8901 N.pl3   1  UNL1       -0.3094
     27 H         139.8859  138.3650  167.4938 H       1  UNL1        0.1523
     28 C         139.4308  139.1489  165.5253 C.ar    1  UNL1        0.0761
     29 C         138.5264  140.2795  165.1334 C.ar    1  UNL1        0.0166
     30 C         137.9043  140.3039  163.7687 C.ar    1  UNL1       -0.0028
     31 C         138.1867  139.1975  162.7959 C.ar    1  UNL1       -0.0195
     32 C         137.5647  139.2219  161.4312 C.3     1  UNL1        0.0311
     33 C         139.0912  138.0669  163.1878 C.ar    1  UNL1        0.0267
     34 C         139.7132  138.0426  164.5526 C.ar    1  UNL1        0.1531
     35 F         140.6177  136.9119  164.9445 F       1  UNL1       -0.2029
@<TRIPOS>BOND
     1    24    25    1
     2    25     1    1
     3     1     2   ar
     4     2     3   ar
     5     3     4   ar
     6     4     5   ar
     7     5     6   ar
     8     6    19    1
     9    19    20   am
    10    19    21    2
    11     6     7   ar
    12     7    26    1
    13    26    28    1
    14    28    29   ar
    15    29    30   ar
    16    30    31   ar
    17    31    32    1
    18    31    33   ar
    19    33    34   ar
    20    34    35    1
    21     7     8   ar
    22     8     9   ar
    23     9    10   ar
    24    10    11    1
    25    11    12    1
    26    12    13    1
    27    13    14    1
    28    14    17    1
    29    17    18    1
    30    14    15    1
    31    15    16    1
    32    10     1   ar
    33    16    11    1
    34     8     3   ar
    35    34    28   ar
    36    20    22    1
    37    20    23    1
    38    26    27    1
@<TRIPOS>MOLECULE
*****
 35 38 0 0 0
SMALL
GASTEIGER

@<TRIPOS>ATOM
      1 C         138.9955  138.0858  164.2175 C.ar    1  UNL1        0.1534
      2 C         138.2778  138.0164  165.5328 C.ar    1  UNL1        0.0591
      3 C         138.7186  138.8837  166.6745 C.ar    1  UNL1        0.1072
      4 N         138.0008  138.8142  167.9898 N.ar    1  UNL1       -0.1477
      5 N         138.4417  139.6814  169.1315 N.ar    1  UNL1       -0.1421
      6 C         139.6004  140.6181  168.9579 C.ar    1  UNL1        0.1690
      7 C         140.3182  140.6875  167.6427 C.ar    1  UNL1        0.0740
      8 C         139.8773  139.8203  166.5010 C.ar    1  UNL1        0.0359
      9 C         140.5951  139.8897  165.1857 C.ar    1  UNL1        0.0204
     10 C         140.1542  139.0225  164.0440 C.ar    1  UNL1        0.0824
     11 N         140.8720  139.0919  162.7287 N.pl3   1  UNL1       -0.3050
     12 C         140.6877  140.2829  161.8357 C.3     1  UNL1        0.0934
     13 C         141.4055  140.3524  160.5204 C.3     1  UNL1        0.0510
     14 C         142.3077  139.2308  160.0981 C.3     1  UNL1        0.1188
     15 C         142.4919  138.0398  160.9911 C.3     1  UNL1        0.0510
     16 C         141.7741  137.9703  162.3064 C.3     1  UNL1        0.0934
     17 O         143.0254  139.3003  158.7829 O.3     1  UNL1       -0.3535
     18 C         142.7606  138.2669  157.7284 C.3     1  UNL1        0.1740
     19 C         140.0413  141.4854  170.0996 C.2     1  UNL1        0.2635
     20 N         140.3914  140.8660  171.4202 N.am    1  UNL1       -0.3240
     21 O         140.1321  142.9719  169.9208 O.2     1  UNL1       -0.2686
     22 H         140.3319  139.8904  171.5376 H       1  UNL1        0.1453
     23 H         140.6808  141.4352  172.1696 H       1  UNL1        0.1453
     24 C         137.8670  137.8302  161.8914 C.3     1  UNL1        0.2525
     25 O         138.5546  137.2186  163.0758 O.3     1  UNL1       -0.4701
     26 N         141.4768  141.6242  167.4691 N.pl3   1  UNL1       -0.3094
     27 H         142.2300  141.5982  168.1027 H       1  UNL1        0.1523
     28 C         141.4880  142.6005  166.3303 C.ar    1  UNL1        0.0761
     29 C         140.2421  143.3589  165.9804 C.ar    1  UNL1        0.0166
     30 C         140.2533  144.3352  164.8417 C.ar    1  UNL1       -0.0028
     31 C         141.5104  144.5530  164.0527 C.ar    1  UNL1       -0.0195
     32 C         141.5215  145.5292  162.9140 C.3     1  UNL1        0.0311
     33 C         142.7563  143.7945  164.4026 C.ar    1  UNL1        0.0267
     34 C         142.7451  142.8182  165.5415 C.ar    1  UNL1        0.1531
     35 F         143.9910  142.0598  165.8914 F       1  UNL1       -0.2029
@<TRIPOS>BOND
     1    24    25    1
     2    25     1    1
     3     1     2   ar
     4     2     3   ar
     5     3     4   ar
     6     4     5   ar
     7     5     6   ar
     8     6    19    1
     9    19    20   am
    10    19    21    2
    11     6     7   ar
    12     7    26    1
    13    26    28    1
    14    28    29   ar
    15    29    30   ar
    16    30    31   ar
    17    31    32    1
    18    31    33   ar
    19    33    34   ar
    20    34    35    1
    21     7     8   ar
    22     8     9   ar
    23     9    10   ar
    24    10    11    1
    25    11    12    1
    26    12    13    1
    27    13    14    1
    28    14    17    1
    29    17    18    1
    30    14    15    1
    31    15    16    1
    32    10     1   ar
    33    16    11    1
    34     8     3   ar
    35    34    28   ar
    36    20    22    1
    37    20    23    1
    38    26    27    1
@<TRIPOS>MOLECULE
*****
 35 38 0 0 0
SMALL
GASTEIGER

@<TRIPOS>ATOM
      1 C         142.8578  142.2484  167.1327 C.ar    1  UNL1        0.1534
      2 C         143.7448  142.9039  166.1161 C.ar    1  UNL1        0.0591
      3 C         143.1465  143.5322  164.8925 C.ar    1  UNL1        0.1072
      4 N         144.0336  144.1878  163.8760 N.ar    1  UNL1       -0.1477
      5 N         143.4353  144.8161  162.6523 N.ar    1  UNL1       -0.1421
      6 C         141.9498  144.7887  162.4452 C.ar    1  UNL1        0.1690
      7 C         141.0628  144.1331  163.4618 C.ar    1  UNL1        0.0740
      8 C         141.6611  143.5049  164.6854 C.ar    1  UNL1        0.0359
      9 C         140.7741  142.8493  165.7019 C.ar    1  UNL1        0.0204
     10 C         141.3725  142.2210  166.9256 C.ar    1  UNL1        0.0824
     11 N         140.4854  141.5654  167.9421 N.pl3   1  UNL1       -0.3050
     12 C         139.7931  140.2760  167.6131 C.3     1  UNL1        0.0934
     13 C         138.9060  139.6204  168.6296 C.3     1  UNL1        0.0510
     14 C         138.7112  140.2542  169.9751 C.3     1  UNL1        0.1188
     15 C         139.4035  141.5436  170.3041 C.3     1  UNL1        0.0510
     16 C         140.2906  142.1992  169.2876 C.3     1  UNL1        0.0934
     17 O         137.8241  139.5986  170.9916 O.3     1  UNL1       -0.3535
     18 C         136.6235  138.8173  170.5466 C.3     1  UNL1        0.1740
     19 C         141.3515  145.4170  161.2216 C.2     1  UNL1        0.2635
     20 N         141.9595  145.1622  159.8741 N.am    1  UNL1       -0.3240
     21 O         140.1452  146.2999  161.3454 O.2     1  UNL1       -0.2686
     22 H         142.7512  144.5827  159.7929 H       1  UNL1        0.1453
     23 H         141.5668  145.5746  159.0710 H       1  UNL1        0.1453
     24 C         143.8513  142.4769  169.5224 C.3     1  UNL1        0.2525
     25 O         143.4561  141.6201  168.3563 O.3     1  UNL1       -0.4701
     26 N         139.5775  144.1058  163.2546 N.pl3   1  UNL1       -0.3094
     27 H         139.0271  144.8721  163.5359 H       1  UNL1        0.1523
     28 C         138.9307  142.9109  162.6190 C.ar    1  UNL1        0.0761
     29 C         139.2718  142.5358  161.2073 C.ar    1  UNL1        0.0166
     30 C         138.6250  141.3410  160.5716 C.ar    1  UNL1       -0.0028
     31 C         137.6371  140.5213  161.3476 C.ar    1  UNL1       -0.0195
     32 C         136.9904  139.3265  160.7119 C.3     1  UNL1        0.0311
     33 C         137.2960  140.8964  162.7593 C.ar    1  UNL1        0.0267
     34 C         137.9428  142.0913  163.3950 C.ar    1  UNL1        0.1531
     35 F         137.6017  142.4664  164.8067 F       1  UNL1       -0.2029
@<TRIPOS>BOND
     1    24    25    1
     2    25     1    1
     3     1     2   ar
     4     2     3   ar
     5     3     4   ar
     6     4     5   ar
     7     5     6   ar
     8     6    19    1
     9    19    20   am
    10    19    21    2
    11     6     7   ar
    12     7    26    1
    13    26    28    1
    14    28    29   ar
    15    29    30   ar
    16    30    31   ar
    17    31    32    1
    18    31    33   ar
    19    33    34   ar
    20    34    35    1
    21     7     8   ar
    22     8     9   ar
    23     9    10   ar
    24    10    11    1
    25    11    12    1
    26    12    13    1
    27    13    14    1
    28    14    17    1
    29    17    18    1
    30    14    15    1
    31    15    16    1
    32    10     1   ar
    33    16    11    1
    34     8     3   ar
    35    34    28   ar
    36    20    22    1
    37    20    23    1
    38    26    27    1
@<TRIPOS>MOLECULE
*****
 35 38 0 0 0
SMALL
GASTEIGER

@<TRIPOS>ATOM
      1 C         139.4547  138.2053  162.5373 C.ar    1  UNL1        0.1534
      2 C         139.3607  138.0164  161.0523 C.ar    1  UNL1        0.0591
      3 C         139.0385  139.1833  160.1666 C.ar    1  UNL1        0.1072
      4 N         138.9445  138.9943  158.6815 N.ar    1  UNL1       -0.1477
      5 N         138.6223  140.1613  157.7959 N.ar    1  UNL1       -0.1421
      6 C         138.3939  141.5172  158.3953 C.ar    1  UNL1        0.1690
      7 C         138.4879  141.7062  159.8804 C.ar    1  UNL1        0.0740
      8 C         138.8101  140.5392  160.7660 C.ar    1  UNL1        0.0359
      9 C         138.9041  140.7282  162.2511 C.ar    1  UNL1        0.0204
     10 C         139.2264  139.5612  163.1367 C.ar    1  UNL1        0.0824
     11 N         139.3203  139.7502  164.6219 N.pl3   1  UNL1       -0.3050
     12 C         138.3301  139.0796  165.5273 C.3     1  UNL1        0.0934
     13 C         138.4240  139.2686  167.0124 C.3     1  UNL1        0.0510
     14 C         139.5081  140.1282  167.5920 C.3     1  UNL1        0.1188
     15 C         140.4983  140.7988  166.6866 C.3     1  UNL1        0.0510
     16 C         140.4043  140.6098  165.2014 C.3     1  UNL1        0.0934
     17 O         139.6020  140.3172  169.0771 O.3     1  UNL1       -0.3535
     18 C         140.8453  139.9057  169.8084 C.3     1  UNL1        0.1740
     19 C         138.0716  142.6842  157.5097 C.2     1  UNL1        0.2635
     20 N         136.8005  142.6928  156.7133 N.am    1  UNL1       -0.3240
     21 O         139.0204  143.8425  157.4205 O.2     1  UNL1       -0.2686
     22 H         136.1778  141.9325  156.7719 H       1  UNL1        0.1453
     23 H         136.5890  143.4587  156.1320 H       1  UNL1        0.1453
     24 C         141.1490  136.9013  164.0134 C.3     1  UNL1        0.2525
     25 O         139.7770  137.0384  163.4230 O.3     1  UNL1       -0.4701
     26 N         138.2595  143.0621  160.4798 N.pl3   1  UNL1       -0.3094
     27 H         137.4123  143.5362  160.3165 H       1  UNL1        0.1523
     28 C         139.3221  143.6957  161.3281 C.ar    1  UNL1        0.0761
     29 C         140.7483  143.7014  160.8636 C.ar    1  UNL1        0.0166
     30 C         141.8109  144.3350  161.7118 C.ar    1  UNL1       -0.0028
     31 C         141.4472  144.9630  163.0246 C.ar    1  UNL1       -0.0195
     32 C         142.5097  145.5966  163.8728 C.3     1  UNL1        0.0311
     33 C         140.0210  144.9574  163.4891 C.ar    1  UNL1        0.0267
     34 C         138.9584  144.3237  162.6408 C.ar    1  UNL1        0.1531
     35 F         137.5321  144.3181  163.1054 F       1  UNL1       -0.2029
@<TRIPOS>BOND
     1    24    25    1
     2    25     1    1
     3     1     2   ar
     4     2     3   ar
     5     3     4   ar
     6     4     5   ar
     7     5     6   ar
     8     6    19    1
     9    19    20   am
    10    19    21    2
    11     6     7   ar
    12     7    26    1
    13    26    28    1
    14    28    29   ar
    15    29    30   ar
    16    30    31   ar
    17    31    32    1
    18    31    33   ar
    19    33    34   ar
    20    34    35    1
    21     7     8   ar
    22     8     9   ar
    23     9    10   ar
    24    10    11    1
    25    11    12    1
    26    12    13    1
    27    13    14    1
    28    14    17    1
    29    17    18    1
    30    14    15    1
    31    15    16    1
    32    10     1   ar
    33    16    11    1
    34     8     3   ar
    35    34    28   ar
    36    20    22    1
    37    20    23    1
    38    26    27    1
@<TRIPOS>MOLECULE
*****
 35 38 0 0 0
SMALL
GASTEIGER

@<TRIPOS>ATOM
      1 C         139.1797  138.3608  163.4846 C.ar    1  UNL1        0.1534
      2 C         138.4958  138.4504  164.8165 C.ar    1  UNL1        0.0591
      3 C         139.2314  139.0019  166.0017 C.ar    1  UNL1        0.1072
      4 N         138.5474  139.0915  167.3337 N.ar    1  UNL1       -0.1477
      5 N         139.2830  139.6430  168.5190 N.ar    1  UNL1       -0.1421
      6 C         140.7026  140.1049  168.3722 C.ar    1  UNL1        0.1690
      7 C         141.3865  140.0153  167.0402 C.ar    1  UNL1        0.0740
      8 C         140.6509  139.4638  165.8550 C.ar    1  UNL1        0.0359
      9 C         141.3348  139.3742  164.5230 C.ar    1  UNL1        0.0204
     10 C         140.5993  138.8226  163.3378 C.ar    1  UNL1        0.0824
     11 N         141.2833  138.7330  162.0058 N.pl3   1  UNL1       -0.3050
     12 C         141.0011  139.7578  160.9474 C.3     1  UNL1        0.0934
     13 C         141.6851  139.6682  159.6154 C.3     1  UNL1        0.0510
     14 C         142.6512  138.5538  159.3419 C.3     1  UNL1        0.1188
     15 C         142.9334  137.5291  160.4003 C.3     1  UNL1        0.0510
     16 C         142.2494  137.6187  161.7323 C.3     1  UNL1        0.0934
     17 O         143.3352  138.4643  158.0099 O.3     1  UNL1       -0.3535
     18 C         143.0030  139.4493  156.9285 C.3     1  UNL1        0.1740
     19 C         141.4381  140.6564  169.5574 C.2     1  UNL1        0.2635
     20 N         141.4170  139.9184  170.8632 N.am    1  UNL1       -0.3240
     21 O         142.1949  141.9459  169.4369 O.2     1  UNL1       -0.2686
     22 H         140.9203  139.0721  170.9422 H       1  UNL1        0.1453
     23 H         141.8997  140.2804  171.6411 H       1  UNL1        0.1453
     24 C         137.5296  138.6946  161.5058 C.3     1  UNL1        0.2525
     25 O         138.4441  137.8093  162.2993 O.3     1  UNL1       -0.4701
     26 N         142.8060  140.4772  166.8935 N.pl3   1  UNL1       -0.3094
     27 H         143.5006  140.1342  167.5012 H       1  UNL1        0.1523
     28 C         143.1674  141.4616  165.8209 C.ar    1  UNL1        0.0761
     29 C         142.4449  142.7731  165.7323 C.ar    1  UNL1        0.0166
     30 C         142.8062  143.7575  164.6598 C.ar    1  UNL1       -0.0028
     31 C         143.8900  143.4304  163.6757 C.ar    1  UNL1       -0.0195
     32 C         144.2514  144.4148  162.6032 C.3     1  UNL1        0.0311
     33 C         144.6126  142.1189  163.7643 C.ar    1  UNL1        0.0267
     34 C         144.2512  141.1345  164.8369 C.ar    1  UNL1        0.1531
     35 F         144.9737  139.8229  164.9255 F       1  UNL1       -0.2029
@<TRIPOS>BOND
     1    24    25    1
     2    25     1    1
     3     1     2   ar
     4     2     3   ar
     5     3     4   ar
     6     4     5   ar
     7     5     6   ar
     8     6    19    1
     9    19    20   am
    10    19    21    2
    11     6     7   ar
    12     7    26    1
    13    26    28    1
    14    28    29   ar
    15    29    30   ar
    16    30    31   ar
    17    31    32    1
    18    31    33   ar
    19    33    34   ar
    20    34    35    1
    21     7     8   ar
    22     8     9   ar
    23     9    10   ar
    24    10    11    1
    25    11    12    1
    26    12    13    1
    27    13    14    1
    28    14    17    1
    29    17    18    1
    30    14    15    1
    31    15    16    1
    32    10     1   ar
    33    16    11    1
    34     8     3   ar
    35    34    28   ar
    36    20    22    1
    37    20    23    1
    38    26    27    1
@<TRIPOS>MOLECULE
*****
 35 38 0 0 0
SMALL
GASTEIGER

@<TRIPOS>ATOM
      1 C         138.5833  140.8015  162.3257 C.ar    1  UNL1        0.1534
      2 C         138.1254  141.2313  160.9635 C.ar    1  UNL1        0.0591
      3 C         138.8224  142.3569  160.2585 C.ar    1  UNL1        0.1072
      4 N         138.3645  142.7867  158.8963 N.ar    1  UNL1       -0.1477
      5 N         139.0616  143.9123  158.1912 N.ar    1  UNL1       -0.1421
      6 C         140.2166  144.6081  158.8484 C.ar    1  UNL1        0.1690
      7 C         140.6745  144.1783  160.2106 C.ar    1  UNL1        0.0740
      8 C         139.9774  143.0527  160.9156 C.ar    1  UNL1        0.0359
      9 C         140.4353  142.6229  162.2778 C.ar    1  UNL1        0.0204
     10 C         139.7382  141.4973  162.9828 C.ar    1  UNL1        0.0824
     11 N         140.1962  141.0675  164.3451 N.pl3   1  UNL1       -0.3050
     12 C         141.3651  140.1379  164.4847 C.3     1  UNL1        0.0934
     13 C         141.8231  139.7081  165.8468 C.3     1  UNL1        0.0510
     14 C         141.1121  140.2079  167.0695 C.3     1  UNL1        0.1188
     15 C         139.9431  141.1375  166.9299 C.3     1  UNL1        0.0510
     16 C         139.4852  141.5673  165.5676 C.3     1  UNL1        0.0934
     17 O         141.5700  139.7781  168.4316 O.3     1  UNL1       -0.3535
     18 C         140.6713  139.9634  169.6182 C.3     1  UNL1        0.1740
     19 C         140.9137  145.7337  158.1434 C.2     1  UNL1        0.2635
     20 N         140.1304  146.6768  157.2789 N.am    1  UNL1       -0.3240
     21 O         142.3939  145.9163  158.3027 O.2     1  UNL1       -0.2686
     22 H         139.1588  146.5569  157.1743 H       1  UNL1        0.1453
     23 H         140.5879  147.4156  156.8162 H       1  UNL1        0.1453
     24 C         138.3949  138.2720  162.8881 C.3     1  UNL1        0.2525
     25 O         137.8862  139.6759  163.0308 O.3     1  UNL1       -0.4701
     26 N         141.8294  144.8741  160.8677 N.pl3   1  UNL1       -0.3094
     27 H         141.9037  145.8548  160.8224 H       1  UNL1        0.1523
     28 C         142.8713  144.0758  161.5939 C.ar    1  UNL1        0.0761
     29 C         143.6243  142.9956  160.8754 C.ar    1  UNL1        0.0166
     30 C         144.6661  142.1973  161.6015 C.ar    1  UNL1       -0.0028
     31 C         144.9550  142.4791  163.0462 C.ar    1  UNL1       -0.0195
     32 C         145.9968  141.6808  163.7723 C.3     1  UNL1        0.0311
     33 C         144.2020  143.5593  163.7647 C.ar    1  UNL1        0.0267
     34 C         143.1602  144.3576  163.0386 C.ar    1  UNL1        0.1531
     35 F         142.4072  145.4378  163.7571 F       1  UNL1       -0.2029
@<TRIPOS>BOND
     1    24    25    1
     2    25     1    1
     3     1     2   ar
     4     2     3   ar
     5     3     4   ar
     6     4     5   ar
     7     5     6   ar
     8     6    19    1
     9    19    20   am
    10    19    21    2
    11     6     7   ar
    12     7    26    1
    13    26    28    1
    14    28    29   ar
    15    29    30   ar
    16    30    31   ar
    17    31    32    1
    18    31    33   ar
    19    33    34   ar
    20    34    35    1
    21     7     8   ar
    22     8     9   ar
    23     9    10   ar
    24    10    11    1
    25    11    12    1
    26    12    13    1
    27    13    14    1
    28    14    17    1
    29    17    18    1
    30    14    15    1
    31    15    16    1
    32    10     1   ar
    33    16    11    1
    34     8     3   ar
    35    34    28   ar
    36    20    22    1
    37    20    23    1
    38    26    27    1
@<TRIPOS>MOLECULE
*****
 35 38 0 0 0
SMALL
GASTEIGER

@<TRIPOS>ATOM
      1 C         139.0139  143.2563  163.9970 C.ar    1  UNL1        0.1534
      2 C         139.3754  143.6716  165.3923 C.ar    1  UNL1        0.0591
      3 C         140.0220  142.6894  166.3234 C.ar    1  UNL1        0.1072
      4 N         140.3835  143.1047  167.7187 N.ar    1  UNL1       -0.1477
      5 N         141.0301  142.1224  168.6498 N.ar    1  UNL1       -0.1421
      6 C         141.3153  140.7248  168.1856 C.ar    1  UNL1        0.1690
      7 C         140.9538  140.3095  166.7904 C.ar    1  UNL1        0.0740
      8 C         140.3071  141.2918  165.8592 C.ar    1  UNL1        0.0359
      9 C         139.9456  140.8765  164.4640 C.ar    1  UNL1        0.0204
     10 C         139.2990  141.8588  163.5329 C.ar    1  UNL1        0.0824
     11 N         138.9375  141.4434  162.1375 N.pl3   1  UNL1       -0.3050
     12 C         139.7323  141.9554  160.9730 C.3     1  UNL1        0.0934
     13 C         139.3708  141.5401  159.5777 C.3     1  UNL1        0.0510
     14 C         138.2146  140.6128  159.3469 C.3     1  UNL1        0.1188
     15 C         137.4198  140.1008  160.5115 C.3     1  UNL1        0.0510
     16 C         137.7813  140.5162  161.9068 C.3     1  UNL1        0.0934
     17 O         137.8531  140.1975  157.9516 O.3     1  UNL1       -0.3535
     18 C         137.0675  141.1250  157.0728 C.3     1  UNL1        0.1740
     19 C         141.9619  139.7425  169.1168 C.2     1  UNL1        0.2635
     20 N         141.4458  139.5842  170.5163 N.am    1  UNL1       -0.3240
     21 O         143.1245  138.9186  168.6484 O.2     1  UNL1       -0.2686
     22 H         140.6827  140.1249  170.8237 H       1  UNL1        0.1453
     23 H         141.8702  138.9395  171.1275 H       1  UNL1        0.1453
     24 C         139.1826  145.3366  162.4497 C.3     1  UNL1        0.2525
     25 O         138.3672  144.2386  163.0659 O.3     1  UNL1       -0.4701
     26 N         141.2389  138.9120  166.3262 N.pl3   1  UNL1       -0.3094
     27 H         140.9677  138.1444  166.8799 H       1  UNL1        0.1523
     28 C         141.9373  138.6838  165.0185 C.ar    1  UNL1        0.0761
     29 C         143.2944  139.2765  164.7795 C.ar    1  UNL1        0.0166
     30 C         143.9928  139.0483  163.4718 C.ar    1  UNL1       -0.0028
     31 C         143.3342  138.2275  162.4030 C.ar    1  UNL1       -0.0195
     32 C         144.0326  137.9993  161.0953 C.3     1  UNL1        0.0311
     33 C         141.9771  137.6348  162.6419 C.ar    1  UNL1        0.0267
     34 C         141.2787  137.8629  163.9497 C.ar    1  UNL1        0.1531
     35 F         139.9216  137.2702  164.1886 F       1  UNL1       -0.2029
@<TRIPOS>BOND
     1    24    25    1
     2    25     1    1
     3     1     2   ar
     4     2     3   ar
     5     3     4   ar
     6     4     5   ar
     7     5     6   ar
     8     6    19    1
     9    19    20   am
    10    19    21    2
    11     6     7   ar
    12     7    26    1
    13    26    28    1
    14    28    29   ar
    15    29    30   ar
    16    30    31   ar
    17    31    32    1
    18    31    33   ar
    19    33    34   ar
    20    34    35    1
    21     7     8   ar
    22     8     9   ar
    23     9    10   ar
    24    10    11    1
    25    11    12    1
    26    12    13    1
    27    13    14    1
    28    14    17    1
    29    17    18    1
    30    14    15    1
    31    15    16    1
    32    10     1   ar
    33    16    11    1
    34     8     3   ar
    35    34    28   ar
    36    20    22    1
    37    20    23    1
    38    26    27    1
