@<TRIPOS>MOLECULE
*****
 40 43 0 0 0
SMALL
GASTEIGER

@<TRIPOS>ATOM
      1 N         140.4901  143.1070  164.1356 N.am    1  UNL1       -0.2770
      2 C         141.3893  142.3952  163.1687 C.2     1  UNL1        0.2294
      3 O         141.9900  142.1015  163.6027 O.2     1  UNL1       -0.2747
      4 C         141.0437  142.3605  161.7094 C.3     1  UNL1        0.1208
      5 C         139.8078  141.6464  161.2482 C.3     1  UNL1        0.0804
      6 N         139.4622  141.6117  159.7889 N.3     1  UNL1       -0.2969
      7 C         140.3526  142.2911  158.7910 C.3     1  UNL1        0.0714
      8 C         141.5884  143.0050  159.2523 C.3     1  UNL1        0.0487
      9 C         141.9340  143.0397  160.7115 C.3     1  UNL1        0.1177
     10 O         143.0829  143.8259  160.1530 O.3     1  UNL1       -0.3821
     11 H         138.5385  142.0341  159.6949 H       1  UNL1        0.1233
     12 H         142.9931  143.8894  159.1892 H       1  UNL1        0.2107
     13 C         142.6785  143.3475  161.9767 C.ar    1  UNL1        0.0046
     14 C         142.4680  144.6607  162.6704 C.ar    1  UNL1        0.0004
     15 C         143.2126  144.9684  163.9357 C.ar    1  UNL1        0.0317
     16 C         144.1677  143.9629  164.5073 C.ar    1  UNL1        0.1674
     17 F         144.9123  144.2707  165.7726 F       1  UNL1       -0.2018
     18 C         144.3783  142.6497  163.8137 C.ar    1  UNL1        0.1671
     19 F         145.3334  141.6442  164.3853 F       1  UNL1       -0.2018
     20 C         143.6337  142.3420  162.5484 C.ar    1  UNL1        0.0299
     21 C         139.2455  143.7840  163.6433 C.3     1  UNL1        0.0758
     22 C         138.5858  144.8547  162.8258 C.3     1  UNL1        0.0215
     23 C         137.7494  143.8860  163.6081 C.3     1  UNL1        0.0215
     24 C         140.8357  143.1417  165.5949 C.3     1  UNL1        0.1201
     25 C         139.0027  139.8646  166.8798 C.ar    1  UNL1       -0.0194
     26 C         139.5202  140.9313  165.9610 C.ar    1  UNL1       -0.0067
     27 C         140.3181  142.0749  166.5138 C.ar    1  UNL1        0.0004
     28 C         140.5985  142.1518  167.9853 C.ar    1  UNL1        0.0343
     29 C         140.0810  141.0851  168.9041 C.ar    1  UNL1        0.1381
     30 C         139.2830  139.9415  168.3513 C.ar    1  UNL1        0.0326
     31 C         138.2047  138.7210  166.3271 C.3     1  UNL1        0.0290
     32 C         138.8479  137.7406  165.3916 C.3     1  UNL1        0.0367
     33 C         138.9297  138.0460  163.9253 C.3     1  UNL1        0.1426
     34 C         141.5194  138.1757  163.7605 C.3     1  UNL1        0.1741
     35 O         140.1652  138.6810  163.3593 O.3     1  UNL1       -0.3511
     36 O         140.3613  141.1619  170.3757 O.3     1  UNL1       -0.4728
     37 C         141.6896  140.7151  170.9104 C.3     1  UNL1        0.2373
     38 C         142.8208  140.4311  169.9671 C.3     1  UNL1        0.1894
     39 O         142.8664  139.1308  169.2207 O.3     1  UNL1       -0.3471
     40 C         142.8720  139.1269  167.7208 C.3     1  UNL1        0.1743
@<TRIPOS>BOND
     1    34    35    1
     2    35    33    1
     3    33    32    1
     4    32    31    1
     5    31    25    1
     6    25    26   ar
     7    26    27   ar
     8    27    24    1
     9    24     1    1
    10     1     2   am
    11     2     3    2
    12     4     2    1
    13     4     5    1
    14     5     6    1
    15     6     7    1
    16     7     8    1
    17     8     9    1
    18     9    10    1
    19     9    13    1
    20    13    14   ar
    21    14    15   ar
    22    15    16   ar
    23    16    17    1
    24    16    18   ar
    25    18    19    1
    26    18    20   ar
    27     1    21    1
    28    21    22    1
    29    22    23    1
    30    27    28   ar
    31    28    29   ar
    32    29    36    1
    33    36    37    1
    34    37    38    1
    35    38    39    1
    36    39    40    1
    37    29    30   ar
    38    30    25   ar
    39     9     4    1
    40    20    13   ar
    41    23    21    1
    42     6    11    1
    43    10    12    1
@<TRIPOS>MOLECULE
*****
 40 43 0 0 0
SMALL
GASTEIGER

@<TRIPOS>ATOM
      1 N         140.0575  143.9067  164.0493 N.am    1  UNL1       -0.2770
      2 C         141.1169  144.6986  163.3418 C.2     1  UNL1        0.2294
      3 O         141.6234  144.9423  163.9071 O.2     1  UNL1       -0.2747
      4 C         141.0510  144.8781  161.8540 C.3     1  UNL1        0.1208
      5 C         139.9082  145.6306  161.2392 C.3     1  UNL1        0.0804
      6 N         139.8423  145.8100  159.7514 N.3     1  UNL1       -0.2969
      7 C         140.9191  145.2369  158.8784 C.3     1  UNL1        0.0714
      8 C         142.0618  144.4844  159.4932 C.3     1  UNL1        0.0487
      9 C         142.1277  144.3050  160.9810 C.3     1  UNL1        0.1177
     10 O         143.3782  143.5824  160.5758 O.3     1  UNL1       -0.3821
     11 H         139.8251  146.8148  159.5765 H       1  UNL1        0.1233
     12 H         143.4725  143.6154  159.6110 H       1  UNL1        0.2107
     13 C         142.6279  143.8746  162.3280 C.ar    1  UNL1        0.0046
     14 C         143.3940  144.8372  163.1863 C.ar    1  UNL1        0.0004
     15 C         143.8941  144.4068  164.5333 C.ar    1  UNL1        0.0317
     16 C         143.6283  143.0138  165.0222 C.ar    1  UNL1        0.1674
     17 F         144.1285  142.5835  166.3693 F       1  UNL1       -0.2018
     18 C         142.8622  142.0512  164.1640 C.ar    1  UNL1        0.1671
     19 F         142.5963  140.6583  164.6528 F       1  UNL1       -0.2018
     20 C         142.3620  142.4817  162.8169 C.ar    1  UNL1        0.0299
     21 C         138.9322  143.2943  163.2692 C.3     1  UNL1        0.0758
     22 C         138.4496  142.3437  162.2140 C.3     1  UNL1        0.0215
     23 C         137.4659  143.1840  162.9730 C.3     1  UNL1        0.0215
     24 C         140.1234  143.7273  165.5371 C.3     1  UNL1        0.1201
     25 C         141.0554  140.6478  167.8605 C.ar    1  UNL1       -0.0194
     26 C         141.0469  142.0270  167.2710 C.ar    1  UNL1       -0.0067
     27 C         140.1319  142.3479  166.1266 C.ar    1  UNL1        0.0004
     28 C         139.2255  141.2895  165.5715 C.ar    1  UNL1        0.0343
     29 C         139.2340  139.9102  166.1609 C.ar    1  UNL1        0.1381
     30 C         140.1490  139.5894  167.3054 C.ar    1  UNL1        0.0326
     31 C         141.9704  140.3269  169.0049 C.3     1  UNL1        0.0290
     32 C         141.4161  140.1859  170.3916 C.3     1  UNL1        0.0367
     33 C         141.6439  141.2690  171.4041 C.3     1  UNL1        0.1426
     34 C         139.7535  142.9001  170.6857 C.3     1  UNL1        0.1741
     35 O         140.5285  142.2046  171.7654 O.3     1  UNL1       -0.3511
     36 O         138.3275  138.8518  165.6059 O.3     1  UNL1       -0.4728
     37 C         138.9032  137.6967  164.8415 C.3     1  UNL1        0.2373
     38 C         139.0456  137.7803  163.3506 C.3     1  UNL1        0.1894
     39 O         140.2538  137.1983  162.6787 O.3     1  UNL1       -0.3471
     40 C         141.6223  137.7039  163.0274 C.3     1  UNL1        0.1743
@<TRIPOS>BOND
     1    34    35    1
     2    35    33    1
     3    33    32    1
     4    32    31    1
     5    31    25    1
     6    25    26   ar
     7    26    27   ar
     8    27    24    1
     9    24     1    1
    10     1     2   am
    11     2     3    2
    12     4     2    1
    13     4     5    1
    14     5     6    1
    15     6     7    1
    16     7     8    1
    17     8     9    1
    18     9    10    1
    19     9    13    1
    20    13    14   ar
    21    14    15   ar
    22    15    16   ar
    23    16    17    1
    24    16    18   ar
    25    18    19    1
    26    18    20   ar
    27     1    21    1
    28    21    22    1
    29    22    23    1
    30    27    28   ar
    31    28    29   ar
    32    29    36    1
    33    36    37    1
    34    37    38    1
    35    38    39    1
    36    39    40    1
    37    29    30   ar
    38    30    25   ar
    39     9     4    1
    40    20    13   ar
    41    23    21    1
    42     6    11    1
    43    10    12    1
@<TRIPOS>MOLECULE
*****
 40 43 0 0 0
SMALL
GASTEIGER

@<TRIPOS>ATOM
      1 N         140.0801  144.0307  164.2602 N.am    1  UNL1       -0.2770
      2 C         141.1078  144.8132  163.4975 C.2     1  UNL1        0.2294
      3 O         141.6549  145.0371  164.0323 O.2     1  UNL1       -0.2747
      4 C         140.9492  145.0192  162.0202 C.3     1  UNL1        0.1208
      5 C         139.7860  145.8062  161.4932 C.3     1  UNL1        0.0804
      6 N         139.6274  146.0122  160.0159 N.3     1  UNL1       -0.2969
      7 C         140.6321  145.4312  159.0655 C.3     1  UNL1        0.0714
      8 C         141.7952  144.6442  159.5925 C.3     1  UNL1        0.0487
      9 C         141.9538  144.4382  161.0698 C.3     1  UNL1        0.1177
     10 O         143.1588  143.6962  160.5725 O.3     1  UNL1       -0.3821
     11 H         139.6213  147.0199  159.8581 H       1  UNL1        0.1233
     12 H         143.1908  143.7436  159.6042 H       1  UNL1        0.2107
     13 C         142.5308  143.9746  162.3744 C.ar    1  UNL1        0.0046
     14 C         143.3742  144.9053  163.1945 C.ar    1  UNL1        0.0004
     15 C         143.9512  144.4415  164.4991 C.ar    1  UNL1        0.0317
     16 C         143.6849  143.0471  164.9836 C.ar    1  UNL1        0.1674
     17 F         144.2620  142.5835  166.2883 F       1  UNL1       -0.2018
     18 C         142.8416  142.1164  164.1636 C.ar    1  UNL1        0.1671
     19 F         142.5752  140.7221  164.6480 F       1  UNL1       -0.2018
     20 C         142.2645  142.5802  162.8589 C.ar    1  UNL1        0.0299
     21 C         138.8940  143.4542  163.5456 C.3     1  UNL1        0.0758
     22 C         138.3210  142.5021  162.5381 C.3     1  UNL1        0.0215
     23 C         137.4125  143.4078  163.3153 C.3     1  UNL1        0.0215
     24 C         140.2387  143.8247  165.7375 C.3     1  UNL1        0.1201
     25 C         139.3446  140.0091  166.3632 C.ar    1  UNL1       -0.0194
     26 C         139.3114  141.3985  165.7991 C.ar    1  UNL1       -0.0067
     27 C         140.2719  142.4352  166.3017 C.ar    1  UNL1        0.0004
     28 C         141.2657  142.0825  167.3684 C.ar    1  UNL1        0.0343
     29 C         141.2989  140.6930  167.9326 C.ar    1  UNL1        0.1381
     30 C         140.3383  139.6563  167.4300 C.ar    1  UNL1        0.0326
     31 C         138.3840  138.9724  165.8607 C.3     1  UNL1        0.0290
     32 C         138.8990  137.7473  165.1650 C.3     1  UNL1        0.0367
     33 C         139.0428  137.7373  163.6719 C.3     1  UNL1        0.1426
     34 C         141.6113  137.7214  163.2813 C.3     1  UNL1        0.1741
     35 O         140.2632  138.3300  163.0320 O.3     1  UNL1       -0.3511
     36 O         142.2927  140.3402  168.9994 O.3     1  UNL1       -0.4728
     37 C         142.3289  141.1223  170.2788 C.3     1  UNL1        0.2373
     38 C         141.2095  140.9929  171.2689 C.3     1  UNL1        0.1894
     39 O         140.5039  142.2190  171.7677 O.3     1  UNL1       -0.3471
     40 C         139.6557  143.0288  170.8324 C.3     1  UNL1        0.1743
@<TRIPOS>BOND
     1    34    35    1
     2    35    33    1
     3    33    32    1
     4    32    31    1
     5    31    25    1
     6    25    26   ar
     7    26    27   ar
     8    27    24    1
     9    24     1    1
    10     1     2   am
    11     2     3    2
    12     4     2    1
    13     4     5    1
    14     5     6    1
    15     6     7    1
    16     7     8    1
    17     8     9    1
    18     9    10    1
    19     9    13    1
    20    13    14   ar
    21    14    15   ar
    22    15    16   ar
    23    16    17    1
    24    16    18   ar
    25    18    19    1
    26    18    20   ar
    27     1    21    1
    28    21    22    1
    29    22    23    1
    30    27    28   ar
    31    28    29   ar
    32    29    36    1
    33    36    37    1
    34    37    38    1
    35    38    39    1
    36    39    40    1
    37    29    30   ar
    38    30    25   ar
    39     9     4    1
    40    20    13   ar
    41    23    21    1
    42     6    11    1
    43    10    12    1
@<TRIPOS>MOLECULE
*****
 40 43 0 0 0
SMALL
GASTEIGER

@<TRIPOS>ATOM
      1 N         138.5082  140.1470  163.7718 N.am    1  UNL1       -0.2770
      2 C         137.8810  141.2553  162.9791 C.2     1  UNL1        0.2294
      3 O         137.5433  141.7427  163.5119 O.2     1  UNL1       -0.2747
      4 C         137.9841  141.2583  161.4826 C.3     1  UNL1        0.1208
      5 C         137.4258  140.1136  160.6900 C.3     1  UNL1        0.0804
      6 N         137.5290  140.1167  159.1936 N.3     1  UNL1       -0.2969
      7 C         138.1904  141.2644  158.4897 C.3     1  UNL1        0.0714
      8 C         138.7486  142.4090  159.2823 C.3     1  UNL1        0.0487
      9 C         138.6455  142.4060  160.7787 C.3     1  UNL1        0.1177
     10 O         139.3568  143.7098  160.5693 O.3     1  UNL1       -0.3821
     11 H         136.5767  140.0593  158.8327 H       1  UNL1        0.1233
     12 H         139.4975  143.8526  159.6202 H       1  UNL1        0.2107
     13 C         138.7894  142.8557  162.2024 C.ar    1  UNL1        0.0046
     14 C         137.6598  143.5732  162.8802 C.ar    1  UNL1        0.0004
     15 C         137.8037  144.0229  164.3039 C.ar    1  UNL1        0.0317
     16 C         139.0773  143.7553  165.0499 C.ar    1  UNL1        0.1674
     17 F         139.2212  144.2051  166.4736 F       1  UNL1       -0.2018
     18 C         140.2069  143.0379  164.3722 C.ar    1  UNL1        0.1671
     19 F         141.4804  142.7703  165.1181 F       1  UNL1       -0.2018
     20 C         140.0629  142.5882  162.9484 C.ar    1  UNL1        0.0299
     21 C         139.2385  139.0419  163.0681 C.3     1  UNL1        0.0758
     22 C         140.3451  138.5857  162.1641 C.3     1  UNL1        0.0215
     23 C         139.3969  137.5839  162.7533 C.3     1  UNL1        0.0215
     24 C         138.4051  140.1440  165.2683 C.3     1  UNL1        0.1201
     25 C         142.1799  139.4859  166.3014 C.ar    1  UNL1       -0.0194
     26 C         140.9424  139.6209  165.4646 C.ar    1  UNL1       -0.0067
     27 C         139.6427  140.0090  166.1051 C.ar    1  UNL1        0.0004
     28 C         139.5806  140.2622  167.5822 C.ar    1  UNL1        0.0343
     29 C         140.8181  140.1272  168.4189 C.ar    1  UNL1        0.1381
     30 C         142.1178  139.7391  167.7785 C.ar    1  UNL1        0.0326
     31 C         143.4796  139.0977  165.6609 C.3     1  UNL1        0.0290
     32 C         143.5204  138.7371  164.2055 C.3     1  UNL1        0.0367
     33 C         144.2467  139.6197  163.2342 C.3     1  UNL1        0.1426
     34 C         145.7825  141.6551  163.7330 C.3     1  UNL1        0.1741
     35 O         144.4118  141.0815  163.5277 O.3     1  UNL1       -0.3511
     36 O         140.7561  140.3804  169.8962 O.3     1  UNL1       -0.4728
     37 C         139.9711  141.5439  170.4254 C.3     1  UNL1        0.2373
     38 C         140.3320  142.9409  170.0151 C.3     1  UNL1        0.1894
     39 O         141.7296  143.2544  169.5698 O.3     1  UNL1       -0.3471
     40 C         142.8799  143.0513  170.5108 C.3     1  UNL1        0.1743
@<TRIPOS>BOND
     1    34    35    1
     2    35    33    1
     3    33    32    1
     4    32    31    1
     5    31    25    1
     6    25    26   ar
     7    26    27   ar
     8    27    24    1
     9    24     1    1
    10     1     2   am
    11     2     3    2
    12     4     2    1
    13     4     5    1
    14     5     6    1
    15     6     7    1
    16     7     8    1
    17     8     9    1
    18     9    10    1
    19     9    13    1
    20    13    14   ar
    21    14    15   ar
    22    15    16   ar
    23    16    17    1
    24    16    18   ar
    25    18    19    1
    26    18    20   ar
    27     1    21    1
    28    21    22    1
    29    22    23    1
    30    27    28   ar
    31    28    29   ar
    32    29    36    1
    33    36    37    1
    34    37    38    1
    35    38    39    1
    36    39    40    1
    37    29    30   ar
    38    30    25   ar
    39     9     4    1
    40    20    13   ar
    41    23    21    1
    42     6    11    1
    43    10    12    1
@<TRIPOS>MOLECULE
*****
 40 43 0 0 0
SMALL
GASTEIGER

@<TRIPOS>ATOM
      1 N         141.7444  142.8875  164.3539 N.am    1  UNL1       -0.2770
      2 C         141.9198  143.7892  163.1680 C.2     1  UNL1        0.2294
      3 O         141.4454  144.4167  163.2971 O.2     1  UNL1       -0.2747
      4 C         142.8554  143.4002  162.0620 C.3     1  UNL1        0.1208
      5 C         144.3264  143.2813  162.3309 C.3     1  UNL1        0.0804
      6 N         145.2620  142.8923  161.2249 N.3     1  UNL1       -0.2969
      7 C         144.7266  142.6221  159.8499 C.3     1  UNL1        0.0714
      8 C         143.2557  142.7409  159.5811 C.3     1  UNL1        0.0487
      9 C         142.3201  143.1299  160.6871 C.3     1  UNL1        0.1177
     10 O         141.3419  142.9763  159.5604 O.3     1  UNL1       -0.3821
     11 H         145.7386  142.0428  161.5275 H       1  UNL1        0.1233
     12 H         141.8155  142.7188  158.7539 H       1  UNL1        0.2107
     13 C         141.0448  143.4656  161.4018 C.ar    1  UNL1        0.0046
     14 C         140.6391  144.8988  161.5789 C.ar    1  UNL1        0.0004
     15 C         139.3638  145.2344  162.2936 C.ar    1  UNL1        0.0317
     16 C         138.4942  144.1369  162.8314 C.ar    1  UNL1        0.1674
     17 F         137.2188  144.4726  163.5461 F       1  UNL1       -0.2018
     18 C         138.8998  142.7037  162.6544 C.ar    1  UNL1        0.1671
     19 F         138.0302  141.6062  163.1920 F       1  UNL1       -0.2018
     20 C         140.1752  142.3681  161.9396 C.ar    1  UNL1        0.0299
     21 C         142.5045  141.5969  164.4338 C.3     1  UNL1        0.0758
     22 C         142.6683  140.1592  164.0385 C.3     1  UNL1        0.0215
     23 C         143.6572  140.7990  164.9672 C.3     1  UNL1        0.0215
     24 C         140.8088  143.2765  165.4600 C.3     1  UNL1        0.1201
     25 C         139.1154  140.0112  166.9501 C.ar    1  UNL1       -0.0194
     26 C         139.5834  141.0422  165.9662 C.ar    1  UNL1       -0.0067
     27 C         140.3408  142.2455  166.4439 C.ar    1  UNL1        0.0004
     28 C         140.6304  142.4179  167.9056 C.ar    1  UNL1        0.0343
     29 C         140.1624  141.3869  168.8894 C.ar    1  UNL1        0.1381
     30 C         139.4050  140.1835  168.4117 C.ar    1  UNL1        0.0326
     31 C         138.3580  138.8079  166.4723 C.3     1  UNL1        0.0290
     32 C         138.6445  138.2303  165.1179 C.3     1  UNL1        0.0367
     33 C         139.9561  137.5520  164.8540 C.3     1  UNL1        0.1426
     34 C         139.6049  137.8642  162.2987 C.3     1  UNL1        0.1741
     35 O         140.4509  137.3981  163.4463 O.3     1  UNL1       -0.3511
     36 O         140.4520  141.5592  170.3512 O.3     1  UNL1       -0.4728
     37 C         141.5094  140.7238  171.0099 C.3     1  UNL1        0.2373
     38 C         142.8071  140.4632  170.3040 C.3     1  UNL1        0.1894
     39 O         143.0006  139.1893  169.5362 O.3     1  UNL1       -0.3471
     40 C         142.8009  139.1719  168.0497 C.3     1  UNL1        0.1743
@<TRIPOS>BOND
     1    34    35    1
     2    35    33    1
     3    33    32    1
     4    32    31    1
     5    31    25    1
     6    25    26   ar
     7    26    27   ar
     8    27    24    1
     9    24     1    1
    10     1     2   am
    11     2     3    2
    12     4     2    1
    13     4     5    1
    14     5     6    1
    15     6     7    1
    16     7     8    1
    17     8     9    1
    18     9    10    1
    19     9    13    1
    20    13    14   ar
    21    14    15   ar
    22    15    16   ar
    23    16    17    1
    24    16    18   ar
    25    18    19    1
    26    18    20   ar
    27     1    21    1
    28    21    22    1
    29    22    23    1
    30    27    28   ar
    31    28    29   ar
    32    29    36    1
    33    36    37    1
    34    37    38    1
    35    38    39    1
    36    39    40    1
    37    29    30   ar
    38    30    25   ar
    39     9     4    1
    40    20    13   ar
    41    23    21    1
    42     6    11    1
    43    10    12    1
@<TRIPOS>MOLECULE
*****
 40 43 0 0 0
SMALL
GASTEIGER

@<TRIPOS>ATOM
      1 N         138.5309  140.0060  164.1693 N.am    1  UNL1       -0.2770
      2 C         137.9702  141.1379  163.3603 C.2     1  UNL1        0.2294
      3 O         137.6575  141.6496  163.8855 O.2     1  UNL1       -0.2747
      4 C         138.0809  141.1176  161.8645 C.3     1  UNL1        0.1208
      5 C         137.4197  140.0244  161.0784 C.3     1  UNL1        0.0804
      6 N         137.5303  140.0040  159.5826 N.3     1  UNL1       -0.2969
      7 C         138.3022  141.0768  158.8730 C.3     1  UNL1        0.0714
      8 C         138.9634  142.1698  159.6591 C.3     1  UNL1        0.0487
      9 C         138.8527  142.1902  161.1549 C.3     1  UNL1        0.1177
     10 O         139.6867  143.4181  160.9386 O.3     1  UNL1       -0.3821
     11 H         136.5788  140.0348  159.2165 H       1  UNL1        0.1233
     12 H         139.8453  143.5381  159.9892 H       1  UNL1        0.2107
     13 C         139.0317  142.6370  162.5755 C.ar    1  UNL1        0.0046
     14 C         140.2836  142.2815  163.3215 C.ar    1  UNL1        0.0004
     15 C         140.4625  142.7283  164.7422 C.ar    1  UNL1        0.0317
     16 C         139.3896  143.5307  165.4169 C.ar    1  UNL1        0.1674
     17 F         139.5686  143.9775  166.8376 F       1  UNL1       -0.2018
     18 C         138.1378  143.8862  164.6710 C.ar    1  UNL1        0.1671
     19 F         137.0649  144.6885  165.3456 F       1  UNL1       -0.2018
     20 C         137.9588  143.4393  163.2502 C.ar    1  UNL1        0.0299
     21 C         139.2022  138.8538  163.4825 C.3     1  UNL1        0.0758
     22 C         140.3131  138.3192  162.6280 C.3     1  UNL1        0.0215
     23 C         139.2542  137.3926  163.1475 C.3     1  UNL1        0.0215
     24 C         138.4203  140.0264  165.6651 C.3     1  UNL1        0.1201
     25 C         140.8369  140.1839  168.8092 C.ar    1  UNL1       -0.0194
     26 C         139.6018  140.2869  167.9643 C.ar    1  UNL1       -0.0067
     27 C         139.6555  139.9234  166.5100 C.ar    1  UNL1        0.0004
     28 C         140.9443  139.4570  165.9005 C.ar    1  UNL1        0.0343
     29 C         142.1794  139.3541  166.7454 C.ar    1  UNL1        0.1381
     30 C         142.1257  139.7175  168.1997 C.ar    1  UNL1        0.0326
     31 C         140.7832  140.5473  170.2635 C.3     1  UNL1        0.0290
     32 C         140.7100  141.9881  170.6743 C.3     1  UNL1        0.0367
     33 C         141.4844  143.0247  169.9155 C.3     1  UNL1        0.1426
     34 C         144.0181  142.4573  169.8225 C.3     1  UNL1        0.1741
     35 O         142.9002  143.3351  170.3019 O.3     1  UNL1       -0.3511
     36 O         143.4683  138.8877  166.1360 O.3     1  UNL1       -0.4728
     37 C         143.7512  139.1511  164.6867 C.3     1  UNL1        0.2373
     38 C         145.1246  139.5727  164.2553 C.3     1  UNL1        0.1894
     39 O         145.4810  141.0289  164.2048 O.3     1  UNL1       -0.3471
     40 C         145.3969  141.7770  162.9074 C.3     1  UNL1        0.1743
@<TRIPOS>BOND
     1    34    35    1
     2    35    33    1
     3    33    32    1
     4    32    31    1
     5    31    25    1
     6    25    26   ar
     7    26    27   ar
     8    27    24    1
     9    24     1    1
    10     1     2   am
    11     2     3    2
    12     4     2    1
    13     4     5    1
    14     5     6    1
    15     6     7    1
    16     7     8    1
    17     8     9    1
    18     9    10    1
    19     9    13    1
    20    13    14   ar
    21    14    15   ar
    22    15    16   ar
    23    16    17    1
    24    16    18   ar
    25    18    19    1
    26    18    20   ar
    27     1    21    1
    28    21    22    1
    29    22    23    1
    30    27    28   ar
    31    28    29   ar
    32    29    36    1
    33    36    37    1
    34    37    38    1
    35    38    39    1
    36    39    40    1
    37    29    30   ar
    38    30    25   ar
    39     9     4    1
    40    20    13   ar
    41    23    21    1
    42     6    11    1
    43    10    12    1
@<TRIPOS>MOLECULE
*****
 40 43 0 0 0
SMALL
GASTEIGER

@<TRIPOS>ATOM
      1 N         143.2184  139.2438  163.8644 N.am    1  UNL1       -0.2770
      2 C         144.1984  140.0684  163.0835 C.2     1  UNL1        0.2294
      3 O         144.7254  140.3443  163.6142 O.2     1  UNL1       -0.2747
      4 C         144.0383  140.2177  161.5995 C.3     1  UNL1        0.1208
      5 C         144.1242  139.0123  160.7109 C.3     1  UNL1        0.0804
      6 N         143.9641  139.1616  159.2269 N.3     1  UNL1       -0.2969
      7 C         143.7181  140.5163  158.6317 C.3     1  UNL1        0.0714
      8 C         143.6322  141.7217  159.5203 C.3     1  UNL1        0.0487
      9 C         143.7923  141.5723  161.0043 C.3     1  UNL1        0.1177
     10 O         143.5758  143.0538  160.9134 O.3     1  UNL1       -0.3821
     11 H         143.1766  138.5731  158.9550 H       1  UNL1        0.1233
     12 H         143.4533  143.3063  159.9849 H       1  UNL1        0.2107
     13 C         143.8772  141.9375  162.4566 C.ar    1  UNL1        0.0046
     14 C         145.2163  142.1307  163.1044 C.ar    1  UNL1        0.0004
     15 C         145.3011  142.4959  164.5568 C.ar    1  UNL1        0.0317
     16 C         144.0470  142.6679  165.3614 C.ar    1  UNL1        0.1674
     17 F         144.1319  143.0331  166.8139 F       1  UNL1       -0.2018
     18 C         142.7079  142.4747  164.7138 C.ar    1  UNL1        0.1671
     19 F         141.4537  142.6467  165.5183 F       1  UNL1       -0.2018
     20 C         142.6231  142.1095  163.2613 C.ar    1  UNL1        0.0299
     21 C         142.0784  138.5686  163.1613 C.3     1  UNL1        0.0758
     22 C         141.3161  137.3217  162.8235 C.3     1  UNL1        0.0215
     23 C         140.8661  138.6459  162.2814 C.3     1  UNL1        0.0215
     24 C         143.3785  139.0945  165.3483 C.3     1  UNL1        0.1201
     25 C         139.6844  139.7399  166.6471 C.ar    1  UNL1       -0.0194
     26 C         140.8297  139.4189  165.7332 C.ar    1  UNL1       -0.0067
     27 C         142.2332  139.4155  166.2623 C.ar    1  UNL1        0.0004
     28 C         142.4915  139.7331  167.7053 C.ar    1  UNL1        0.0343
     29 C         141.3463  140.0541  168.6192 C.ar    1  UNL1        0.1381
     30 C         139.9427  140.0575  168.0901 C.ar    1  UNL1        0.0326
     31 C         138.2808  139.7433  166.1180 C.3     1  UNL1        0.0290
     32 C         137.9863  140.3473  164.7770 C.3     1  UNL1        0.0367
     33 C         138.6204  141.6489  164.3850 C.3     1  UNL1        0.1426
     34 C         137.7598  143.9643  163.5797 C.3     1  UNL1        0.1741
     35 O         137.9142  142.9421  164.6665 O.3     1  UNL1       -0.3511
     36 O         141.6046  140.3718  170.0623 O.3     1  UNL1       -0.4728
     37 C         142.7179  141.3044  170.4374 C.3     1  UNL1        0.2373
     38 C         142.7473  142.6983  169.8839 C.3     1  UNL1        0.1894
     39 O         141.7835  143.7282  170.3941 O.3     1  UNL1       -0.3471
     40 C         140.4036  143.8171  169.8128 C.3     1  UNL1        0.1743
@<TRIPOS>BOND
     1    34    35    1
     2    35    33    1
     3    33    32    1
     4    32    31    1
     5    31    25    1
     6    25    26   ar
     7    26    27   ar
     8    27    24    1
     9    24     1    1
    10     1     2   am
    11     2     3    2
    12     4     2    1
    13     4     5    1
    14     5     6    1
    15     6     7    1
    16     7     8    1
    17     8     9    1
    18     9    10    1
    19     9    13    1
    20    13    14   ar
    21    14    15   ar
    22    15    16   ar
    23    16    17    1
    24    16    18   ar
    25    18    19    1
    26    18    20   ar
    27     1    21    1
    28    21    22    1
    29    22    23    1
    30    27    28   ar
    31    28    29   ar
    32    29    36    1
    33    36    37    1
    34    37    38    1
    35    38    39    1
    36    39    40    1
    37    29    30   ar
    38    30    25   ar
    39     9     4    1
    40    20    13   ar
    41    23    21    1
    42     6    11    1
    43    10    12    1
@<TRIPOS>MOLECULE
*****
 40 43 0 0 0
SMALL
GASTEIGER

@<TRIPOS>ATOM
      1 N         141.0450  143.1770  164.5015 N.am    1  UNL1       -0.2770
      2 C         142.0096  143.6160  163.4400 C.2     1  UNL1        0.2294
      3 O         142.7360  143.4373  163.7156 O.2     1  UNL1       -0.2747
      4 C         141.5001  144.2474  162.1783 C.3     1  UNL1        0.1208
      5 C         140.7567  145.5489  162.2382 C.3     1  UNL1        0.0804
      6 N         140.2472  146.1804  160.9766 N.3     1  UNL1       -0.2969
      7 C         140.4811  145.5103  159.6551 C.3     1  UNL1        0.0714
      8 C         141.2244  144.2088  159.5952 C.3     1  UNL1        0.0487
      9 C         141.7339  143.5774  160.8569 C.3     1  UNL1        0.1177
     10 O         142.2010  142.5661  159.8523 O.3     1  UNL1       -0.3821
     11 H         140.6733  147.1052  160.9173 H       1  UNL1        0.1233
     12 H         141.9361  142.8477  158.9628 H       1  UNL1        0.2107
     13 C         142.4057  142.5948  161.7696 C.ar    1  UNL1        0.0046
     14 C         141.6590  141.3858  162.2501 C.ar    1  UNL1        0.0004
     15 C         142.3308  140.4032  163.1629 C.ar    1  UNL1        0.0317
     16 C         143.7492  140.6295  163.5952 C.ar    1  UNL1        0.1674
     17 F         144.4209  139.6468  164.5080 F       1  UNL1       -0.2018
     18 C         144.4959  141.8384  163.1147 C.ar    1  UNL1        0.1671
     19 F         145.9143  142.0648  163.5470 F       1  UNL1       -0.2018
     20 C         143.8241  142.8211  162.2019 C.ar    1  UNL1        0.0299
     21 C         139.5709  143.3694  164.3014 C.3     1  UNL1        0.0758
     22 C         138.2929  142.9900  163.6140 C.3     1  UNL1        0.0215
     23 C         138.2958  144.0820  164.6423 C.3     1  UNL1        0.0215
     24 C         141.5545  142.5455  165.7631 C.3     1  UNL1        0.1201
     25 C         139.1287  139.5135  166.5829 C.ar    1  UNL1       -0.0194
     26 C         139.9981  140.4659  165.8169 C.ar    1  UNL1       -0.0067
     27 C         140.6850  141.5931  166.5293 C.ar    1  UNL1        0.0004
     28 C         140.5025  141.7679  168.0078 C.ar    1  UNL1        0.0343
     29 C         139.6331  140.8154  168.7739 C.ar    1  UNL1        0.1381
     30 C         138.9462  139.6882  168.0615 C.ar    1  UNL1        0.0326
     31 C         138.4418  138.3862  165.8705 C.3     1  UNL1        0.0290
     32 C         139.1450  137.6601  164.7623 C.3     1  UNL1        0.0367
     33 C         138.8191  137.9768  163.3328 C.3     1  UNL1        0.1426
     34 C         137.8297  139.5933  161.5557 C.3     1  UNL1        0.1741
     35 O         138.1734  139.2848  162.9828 O.3     1  UNL1       -0.3511
     36 O         139.4505  140.9902  170.2525 O.3     1  UNL1       -0.4728
     37 C         140.4022  140.3342  171.2084 C.3     1  UNL1        0.2373
     38 C         141.7774  140.9004  171.4047 C.3     1  UNL1        0.1894
     39 O         141.9622  142.3789  171.5768 O.3     1  UNL1       -0.3471
     40 C         142.7638  143.1561  170.5751 C.3     1  UNL1        0.1743
@<TRIPOS>BOND
     1    34    35    1
     2    35    33    1
     3    33    32    1
     4    32    31    1
     5    31    25    1
     6    25    26   ar
     7    26    27   ar
     8    27    24    1
     9    24     1    1
    10     1     2   am
    11     2     3    2
    12     4     2    1
    13     4     5    1
    14     5     6    1
    15     6     7    1
    16     7     8    1
    17     8     9    1
    18     9    10    1
    19     9    13    1
    20    13    14   ar
    21    14    15   ar
    22    15    16   ar
    23    16    17    1
    24    16    18   ar
    25    18    19    1
    26    18    20   ar
    27     1    21    1
    28    21    22    1
    29    22    23    1
    30    27    28   ar
    31    28    29   ar
    32    29    36    1
    33    36    37    1
    34    37    38    1
    35    38    39    1
    36    39    40    1
    37    29    30   ar
    38    30    25   ar
    39     9     4    1
    40    20    13   ar
    41    23    21    1
    42     6    11    1
    43    10    12    1
@<TRIPOS>MOLECULE
*****
 40 43 0 0 0
SMALL
GASTEIGER

@<TRIPOS>ATOM
      1 N         141.5708  139.0276  164.3247 N.am    1  UNL1       -0.2770
      2 C         140.1487  138.6131  164.0878 C.2     1  UNL1        0.2294
      3 O         139.9092  138.2562  164.7592 O.2     1  UNL1       -0.2747
      4 C         139.4907  138.9080  162.7725 C.3     1  UNL1        0.1208
      5 C         140.0581  138.3391  161.5058 C.3     1  UNL1        0.0804
      6 N         139.4001  138.6340  160.1905 N.3     1  UNL1       -0.2969
      7 C         138.1748  139.4979  160.1419 C.3     1  UNL1        0.0714
      8 C         137.6074  140.0668  161.4085 C.3     1  UNL1        0.0487
      9 C         138.2654  139.7718  162.7238 C.3     1  UNL1        0.1177
     10 O         137.1319  140.6377  163.1880 O.3     1  UNL1       -0.3821
     11 H         139.1434  137.7355  159.7816 H       1  UNL1        0.1233
     12 H         136.6021  140.9138  162.4238 H       1  UNL1        0.2107
     13 C         138.5297  139.7776  164.2003 C.ar    1  UNL1        0.0046
     14 C         138.1113  138.6084  165.0417 C.ar    1  UNL1        0.0004
     15 C         138.3757  138.6142  166.5182 C.ar    1  UNL1        0.0317
     16 C         139.0584  139.7892  167.1534 C.ar    1  UNL1        0.1674
     17 F         139.3228  139.7949  168.6299 F       1  UNL1       -0.2018
     18 C         139.4768  140.9584  166.3120 C.ar    1  UNL1        0.1671
     19 F         140.1596  142.1333  166.9471 F       1  UNL1       -0.2018
     20 C         139.2125  140.9525  164.8354 C.ar    1  UNL1        0.0299
     21 C         142.3348  139.7371  163.2463 C.3     1  UNL1        0.0758
     22 C         143.4429  139.7538  162.2355 C.3     1  UNL1        0.0215
     23 C         142.5499  140.9491  162.3891 C.3     1  UNL1        0.0215
     24 C         142.2288  138.7327  165.6400 C.3     1  UNL1        0.1201
     25 C         142.8791  140.8069  168.9604 C.ar    1  UNL1       -0.0194
     26 C         142.4991  139.6826  168.0431 C.ar    1  UNL1       -0.0067
     27 C         142.6088  139.8571  166.5573 C.ar    1  UNL1        0.0004
     28 C         143.0985  141.1560  165.9889 C.ar    1  UNL1        0.0343
     29 C         143.4785  142.2803  166.9062 C.ar    1  UNL1        0.1381
     30 C         143.3688  142.1057  168.3919 C.ar    1  UNL1        0.0326
     31 C         142.7694  140.6324  170.4462 C.3     1  UNL1        0.0290
     32 C         141.8700  141.5307  171.2425 C.3     1  UNL1        0.0367
     33 C         140.4617  141.7758  170.7881 C.3     1  UNL1        0.1426
     34 C         140.4370  144.2252  169.9220 C.3     1  UNL1        0.1741
     35 O         139.8910  143.1625  170.8289 O.3     1  UNL1       -0.3511
     36 O         143.9682  143.5792  166.3377 O.3     1  UNL1       -0.4728
     37 C         144.2851  143.6859  164.8755 C.3     1  UNL1        0.2373
     38 C         143.7619  144.8431  164.0772 C.3     1  UNL1        0.1894
     39 O         142.3009  145.1808  164.1148 O.3     1  UNL1       -0.3471
     40 C         141.2807  144.0862  164.2195 C.3     1  UNL1        0.1743
@<TRIPOS>BOND
     1    34    35    1
     2    35    33    1
     3    33    32    1
     4    32    31    1
     5    31    25    1
     6    25    26   ar
     7    26    27   ar
     8    27    24    1
     9    24     1    1
    10     1     2   am
    11     2     3    2
    12     4     2    1
    13     4     5    1
    14     5     6    1
    15     6     7    1
    16     7     8    1
    17     8     9    1
    18     9    10    1
    19     9    13    1
    20    13    14   ar
    21    14    15   ar
    22    15    16   ar
    23    16    17    1
    24    16    18   ar
    25    18    19    1
    26    18    20   ar
    27     1    21    1
    28    21    22    1
    29    22    23    1
    30    27    28   ar
    31    28    29   ar
    32    29    36    1
    33    36    37    1
    34    37    38    1
    35    38    39    1
    36    39    40    1
    37    29    30   ar
    38    30    25   ar
    39     9     4    1
    40    20    13   ar
    41    23    21    1
    42     6    11    1
    43    10    12    1
