@<TRIPOS>MOLECULE
*****
 37 41 0 0 0
SMALL
GASTEIGER

@<TRIPOS>ATOM
      1 C         142.0950  144.1202  162.4246 C.2     1  UNL1        0.2352
      2 O         143.2382  145.0912  162.4067 O.2     1  UNL1       -0.2737
      3 N         141.9124  143.1555  161.2906 N.am    1  UNL1       -0.3008
      4 H         141.1621  142.5182  161.3024 H       1  UNL1        0.1497
      5 N         140.8753  145.4859  163.0293 N.3     1  UNL1       -0.3162
      6 C         141.1344  144.1137  163.5767 C.3     1  UNL1        0.1166
      7 C         141.7272  142.7437  163.7241 C.3     1  UNL1        0.0739
      8 C         141.2694  141.8438  164.8333 C.3     1  UNL1        0.2039
      9 N         140.2187  142.3138  165.7953 N.pl3   1  UNL1       -0.1931
     10 C         139.6260  143.6838  165.6479 C.3     1  UNL1        0.2039
     11 C         140.0839  144.5838  164.5386 C.3     1  UNL1        0.0739
     12 H         141.4712  145.6461  162.2171 H       1  UNL1        0.1192
     13 H         141.0821  146.1823  163.7453 H       1  UNL1        0.1192
     14 C         139.7609  141.4139  166.9045 C.2     1  UNL1        0.3205
     15 N         139.0128  140.1531  166.5871 N.2     1  UNL1        0.0097
     16 C         138.5550  139.2532  167.6963 C.2     1  UNL1        0.4717
     17 N         138.8453  139.6140  169.1231 N.2     1  UNL1        0.0158
     18 C         139.5934  140.8747  169.4405 C.2     1  UNL1        0.3714
     19 N         140.0220  141.4870  170.7411 N.2     1  UNL1       -0.0339
     20 C         140.7448  142.7654  170.4355 C.2     1  UNL1        0.2323
     21 C         140.7628  142.9432  168.9462 C.2     1  UNL1        0.0486
     22 C         140.0512  141.7747  168.3313 C.3     1  UNL1        0.2428
     23 C         142.8729  143.1619  160.1385 C.3     1  UNL1        0.0984
     24 C         142.5030  143.8487  158.8573 C.ar    1  UNL1       -0.0041
     25 C         141.6327  145.0702  158.8854 C.ar    1  UNL1       -0.0018
     26 C         141.2627  145.7570  157.6042 C.ar    1  UNL1        0.0111
     27 C         141.7631  145.2224  156.2951 C.ar    1  UNL1        0.0577
     28 CL        141.3931  145.9094  155.0139 Cl      1  UNL1       -0.0822
     29 C         142.6334  144.0011  156.2670 C.ar    1  UNL1        0.0111
     30 C         143.0034  143.3142  157.5482 C.ar    1  UNL1       -0.0018
     31 C         144.2035  142.4814  160.2676 C.3     1  UNL1        0.0504
     32 C         144.5083  141.6546  161.4815 C.ar    1  UNL1       -0.0202
     33 C         143.9903  140.2504  161.5819 C.ar    1  UNL1       -0.0042
     34 C         144.2951  139.4237  162.7958 C.ar    1  UNL1       -0.0003
     35 C         145.1179  140.0010  163.9092 C.ar    1  UNL1       -0.0000
     36 C         145.6360  141.4052  163.8088 C.ar    1  UNL1       -0.0003
     37 C         145.3311  142.2319  162.5949 C.ar    1  UNL1       -0.0042
@<TRIPOS>BOND
     1     5     6    1
     2     6     1    1
     3     1     2    2
     4     1     3   am
     5     3    23    1
     6    23    31    1
     7    31    32    1
     8    32    33   ar
     9    33    34   ar
    10    34    35   ar
    11    35    36   ar
    12    36    37   ar
    13    23    24    1
    14    24    25   ar
    15    25    26   ar
    16    26    27   ar
    17    27    28    1
    18    27    29   ar
    19    29    30   ar
    20     6     7    1
    21     7     8    1
    22     8     9    1
    23     9    14    1
    24    14    15    2
    25    15    16    1
    26    16    17    2
    27    17    18    1
    28    18    19    2
    29    19    20    1
    30    20    21    2
    31    21    22    1
    32     9    10    1
    33    10    11    1
    34    11     6    1
    35    37    32   ar
    36    30    24   ar
    37    22    14    1
    38    22    18    1
    39     5    12    1
    40     5    13    1
    41     3     4    1
@<TRIPOS>MOLECULE
*****
 37 41 0 0 0
SMALL
GASTEIGER

@<TRIPOS>ATOM
      1 C         143.9849  140.5791  162.8599 C.2     1  UNL1        0.2352
      2 O         145.3699  141.0088  162.4763 O.2     1  UNL1       -0.2737
      3 N         142.8476  140.7706  161.9009 N.am    1  UNL1       -0.3008
      4 H         141.9386  140.4886  162.1527 H       1  UNL1        0.1497
      5 N         144.7357  138.9866  163.6466 N.3     1  UNL1       -0.3162
      6 C         143.7372  139.9580  164.2026 C.3     1  UNL1        0.1166
      7 C         142.8246  141.1452  164.2924 C.3     1  UNL1        0.0739
      8 C         142.0112  141.3739  165.5316 C.3     1  UNL1        0.2039
      9 N         142.1102  140.4154  166.6813 N.pl3   1  UNL1       -0.1931
     10 C         143.0227  139.2282  166.5916 C.3     1  UNL1        0.2039
     11 C         143.8362  138.9996  165.3522 C.3     1  UNL1        0.0739
     12 H         145.0105  139.2805  162.7094 H       1  UNL1        0.1192
     13 H         144.3178  138.0572  163.6027 H       1  UNL1        0.1192
     14 C         141.2966  140.6441  167.9206 C.2     1  UNL1        0.3205
     15 N         139.9561  139.9878  168.0695 N.2     1  UNL1        0.0097
     16 C         139.1426  140.2165  169.3087 C.2     1  UNL1        0.4717
     17 N         139.6696  141.1015  170.3992 N.2     1  UNL1        0.0158
     18 C         141.0101  141.7578  170.2503 C.2     1  UNL1        0.3714
     19 N         141.7842  142.6748  171.1503 N.2     1  UNL1       -0.0339
     20 C         143.0761  143.0129  170.4672 C.2     1  UNL1        0.2323
     21 C         143.1005  142.3048  169.1450 C.2     1  UNL1        0.0486
     22 C         141.8237  141.5291  169.0110 C.3     1  UNL1        0.2428
     23 C         143.0952  141.3917  160.5581 C.3     1  UNL1        0.0984
     24 C         143.1601  140.5286  159.3330 C.ar    1  UNL1       -0.0041
     25 C         142.4832  139.1901  159.3219 C.ar    1  UNL1       -0.0018
     26 C         142.5481  138.3270  158.0968 C.ar    1  UNL1        0.0111
     27 C         143.2898  138.8026  156.8828 C.ar    1  UNL1        0.0577
     28 CL        143.3546  137.9394  155.6577 Cl      1  UNL1       -0.0822
     29 C         143.9667  140.1411  156.8939 C.ar    1  UNL1        0.0111
     30 C         143.9018  141.0042  158.1191 C.ar    1  UNL1       -0.0018
     31 C         143.2780  142.8759  160.4406 C.3     1  UNL1        0.0504
     32 C         142.9082  143.7702  161.5867 C.ar    1  UNL1       -0.0202
     33 C         141.4827  144.1979  161.7745 C.ar    1  UNL1       -0.0042
     34 C         141.1130  145.0921  162.9206 C.ar    1  UNL1       -0.0003
     35 C         142.1685  145.5587  163.8788 C.ar    1  UNL1       -0.0000
     36 C         143.5939  145.1310  163.6909 C.ar    1  UNL1       -0.0003
     37 C         143.9637  144.2368  162.5449 C.ar    1  UNL1       -0.0042
@<TRIPOS>BOND
     1     5     6    1
     2     6     1    1
     3     1     2    2
     4     1     3   am
     5     3    23    1
     6    23    31    1
     7    31    32    1
     8    32    33   ar
     9    33    34   ar
    10    34    35   ar
    11    35    36   ar
    12    36    37   ar
    13    23    24    1
    14    24    25   ar
    15    25    26   ar
    16    26    27   ar
    17    27    28    1
    18    27    29   ar
    19    29    30   ar
    20     6     7    1
    21     7     8    1
    22     8     9    1
    23     9    14    1
    24    14    15    2
    25    15    16    1
    26    16    17    2
    27    17    18    1
    28    18    19    2
    29    19    20    1
    30    20    21    2
    31    21    22    1
    32     9    10    1
    33    10    11    1
    34    11     6    1
    35    37    32   ar
    36    30    24   ar
    37    22    14    1
    38    22    18    1
    39     5    12    1
    40     5    13    1
    41     3     4    1
@<TRIPOS>MOLECULE
*****
 37 41 0 0 0
SMALL
GASTEIGER

@<TRIPOS>ATOM
      1 C         142.1419  144.1735  162.4497 C.2     1  UNL1        0.2352
      2 O         143.2974  145.1286  162.4020 O.2     1  UNL1       -0.2737
      3 N         141.9322  143.1935  161.3336 N.am    1  UNL1       -0.3008
      4 H         141.1738  142.5666  161.3649 H       1  UNL1        0.1497
      5 N         140.8289  145.4934  162.9522 N.3     1  UNL1       -0.3162
      6 C         141.1959  144.1981  163.6135 C.3     1  UNL1        0.1166
      7 C         141.8914  142.8942  163.8707 C.3     1  UNL1        0.0739
      8 C         141.5136  142.0648  165.0620 C.3     1  UNL1        0.2039
      9 N         140.4401  142.5393  165.9962 N.pl3   1  UNL1       -0.1931
     10 C         139.7446  143.8431  165.7391 C.3     1  UNL1        0.2039
     11 C         140.1225  144.6725  164.5477 C.3     1  UNL1        0.0739
     12 H         141.4030  145.6246  162.1194 H       1  UNL1        0.1192
     13 H         140.9898  146.2639  163.6009 H       1  UNL1        0.1192
     14 C         140.0622  141.7098  167.1875 C.2     1  UNL1        0.3205
     15 N         140.5281  142.1077  168.5567 N.2     1  UNL1        0.0097
     16 C         140.1503  141.2783  169.7479 C.2     1  UNL1        0.4717
     17 N         139.3065  140.0509  169.5702 N.2     1  UNL1        0.0158
     18 C         138.8406  139.6530  168.2010 C.2     1  UNL1        0.3714
     19 N         138.0047  138.5043  167.7197 N.2     1  UNL1       -0.0339
     20 C         137.8659  138.6237  166.2310 C.2     1  UNL1        0.2323
     21 C         138.6161  139.8463  165.7921 C.2     1  UNL1        0.0486
     22 C         139.2184  140.4825  167.0097 C.3     1  UNL1        0.2428
     23 C         142.8782  143.1688  160.1697 C.3     1  UNL1        0.0984
     24 C         142.5078  143.8535  158.8875 C.ar    1  UNL1       -0.0041
     25 C         143.0594  143.3551  157.5846 C.ar    1  UNL1       -0.0018
     26 C         142.6890  144.0397  156.3024 C.ar    1  UNL1        0.0111
     27 C         141.7670  145.2228  156.3231 C.ar    1  UNL1        0.0577
     28 CL        141.3966  145.9074  155.0408 Cl      1  UNL1       -0.0822
     29 C         141.2154  145.7211  157.6259 C.ar    1  UNL1        0.0111
     30 C         141.5858  145.0365  158.9082 C.ar    1  UNL1       -0.0018
     31 C         144.1946  142.4594  160.2881 C.3     1  UNL1        0.0504
     32 C         144.4981  141.6405  161.5076 C.ar    1  UNL1       -0.0202
     33 C         145.3673  142.2043  162.5923 C.ar    1  UNL1       -0.0042
     34 C         145.6709  141.3853  163.8118 C.ar    1  UNL1       -0.0003
     35 C         145.1053  140.0026  163.9465 C.ar    1  UNL1       -0.0000
     36 C         144.2361  139.4388  162.8618 C.ar    1  UNL1       -0.0003
     37 C         143.9326  140.2577  161.6423 C.ar    1  UNL1       -0.0042
@<TRIPOS>BOND
     1     5     6    1
     2     6     1    1
     3     1     2    2
     4     1     3   am
     5     3    23    1
     6    23    31    1
     7    31    32    1
     8    32    33   ar
     9    33    34   ar
    10    34    35   ar
    11    35    36   ar
    12    36    37   ar
    13    23    24    1
    14    24    25   ar
    15    25    26   ar
    16    26    27   ar
    17    27    28    1
    18    27    29   ar
    19    29    30   ar
    20     6     7    1
    21     7     8    1
    22     8     9    1
    23     9    14    1
    24    14    15    2
    25    15    16    1
    26    16    17    2
    27    17    18    1
    28    18    19    2
    29    19    20    1
    30    20    21    2
    31    21    22    1
    32     9    10    1
    33    10    11    1
    34    11     6    1
    35    37    32   ar
    36    30    24   ar
    37    22    14    1
    38    22    18    1
    39     5    12    1
    40     5    13    1
    41     3     4    1
@<TRIPOS>MOLECULE
*****
 37 41 0 0 0
SMALL
GASTEIGER

@<TRIPOS>ATOM
      1 C         140.7905  138.4471  162.6122 C.2     1  UNL1        0.2352
      2 O         141.1756  136.9995  162.5346 O.2     1  UNL1       -0.2737
      3 N         141.3479  139.4257  161.6214 N.am    1  UNL1       -0.3008
      4 H         141.0951  140.3758  161.6724 H       1  UNL1        0.1497
      5 N         138.8847  138.7336  162.5455 N.3     1  UNL1       -0.3162
      6 C         139.8479  138.9162  163.6806 C.3     1  UNL1        0.1166
      7 C         141.1386  138.9359  164.4449 C.3     1  UNL1        0.0739
      8 C         141.1522  139.3613  165.8831 C.3     1  UNL1        0.2039
      9 N         139.8750  139.7670  166.5574 N.pl3   1  UNL1       -0.1931
     10 C         138.5844  139.7474  165.7932 C.3     1  UNL1        0.2039
     11 C         138.5709  139.3220  164.3549 C.3     1  UNL1        0.0739
     12 H         139.3888  138.4075  161.7209 H       1  UNL1        0.1192
     13 H         138.4320  139.6236  162.3372 H       1  UNL1        0.1192
     14 C         139.8886  140.1924  167.9957 C.2     1  UNL1        0.3205
     15 N         138.7800  139.7696  168.9134 N.2     1  UNL1        0.0097
     16 C         138.7936  140.1950  170.3517 C.2     1  UNL1        0.4717
     17 N         139.9158  141.0432  170.8724 N.2     1  UNL1        0.0158
     18 C         141.0245  141.4660  169.9548 C.2     1  UNL1        0.3714
     19 N         142.2536  142.2954  170.1813 N.2     1  UNL1       -0.0339
     20 C         142.9997  142.3826  168.8829 C.2     1  UNL1        0.2323
     21 C         142.2316  141.6071  167.8540 C.2     1  UNL1        0.0486
     22 C         141.0109  141.0406  168.5164 C.3     1  UNL1        0.2428
     23 C         142.2905  138.9566  160.5530 C.3     1  UNL1        0.0984
     24 C         141.7513  138.4082  159.2652 C.ar    1  UNL1       -0.0041
     25 C         140.3095  138.6155  158.9069 C.ar    1  UNL1       -0.0018
     26 C         139.7703  138.0671  157.6191 C.ar    1  UNL1        0.0111
     27 C         140.6729  137.3114  156.6895 C.ar    1  UNL1        0.0577
     28 CL        140.1337  136.7629  155.4017 Cl      1  UNL1       -0.0822
     29 C         142.1147  137.1040  157.0477 C.ar    1  UNL1        0.0111
     30 C         142.6539  137.6524  158.3356 C.ar    1  UNL1       -0.0018
     31 C         143.7722  139.0359  160.7724 C.3     1  UNL1        0.0504
     32 C         144.3237  139.9109  161.8589 C.ar    1  UNL1       -0.0202
     33 C         144.6227  139.3311  163.2096 C.ar    1  UNL1       -0.0042
     34 C         145.1741  140.2061  164.2960 C.ar    1  UNL1       -0.0003
     35 C         145.4265  141.6609  164.0317 C.ar    1  UNL1       -0.0000
     36 C         145.1275  142.2408  162.6810 C.ar    1  UNL1       -0.0003
     37 C         144.5761  141.3657  161.5946 C.ar    1  UNL1       -0.0042
@<TRIPOS>BOND
     1     5     6    1
     2     6     1    1
     3     1     2    2
     4     1     3   am
     5     3    23    1
     6    23    31    1
     7    31    32    1
     8    32    33   ar
     9    33    34   ar
    10    34    35   ar
    11    35    36   ar
    12    36    37   ar
    13    23    24    1
    14    24    25   ar
    15    25    26   ar
    16    26    27   ar
    17    27    28    1
    18    27    29   ar
    19    29    30   ar
    20     6     7    1
    21     7     8    1
    22     8     9    1
    23     9    14    1
    24    14    15    2
    25    15    16    1
    26    16    17    2
    27    17    18    1
    28    18    19    2
    29    19    20    1
    30    20    21    2
    31    21    22    1
    32     9    10    1
    33    10    11    1
    34    11     6    1
    35    37    32   ar
    36    30    24   ar
    37    22    14    1
    38    22    18    1
    39     5    12    1
    40     5    13    1
    41     3     4    1
@<TRIPOS>MOLECULE
*****
 37 41 0 0 0
SMALL
GASTEIGER

@<TRIPOS>ATOM
      1 C         139.0832  143.2845  164.1514 C.2     1  UNL1        0.2352
      2 O         137.6933  143.4337  164.6952 O.2     1  UNL1       -0.2737
      3 N         139.9682  142.1796  164.6475 N.am    1  UNL1       -0.3008
      4 H         140.8805  142.0817  164.2905 H       1  UNL1        0.1497
      5 N         139.4348  145.1767  164.2730 N.3     1  UNL1       -0.3162
      6 C         139.5883  144.2402  163.1114 C.3     1  UNL1        0.1166
      7 C         139.5665  142.9717  162.3110 C.3     1  UNL1        0.0739
      8 C         139.9964  142.9842  160.8740 C.3     1  UNL1        0.2039
      9 N         140.4482  144.2651  160.2374 N.pl3   1  UNL1       -0.1931
     10 C         140.4701  145.5335  161.0377 C.3     1  UNL1        0.2039
     11 C         140.0401  145.5210  162.4748 C.3     1  UNL1        0.0739
     12 H         139.0885  144.6610  165.0820 H       1  UNL1        0.1192
     13 H         138.7724  145.9134  164.0304 H       1  UNL1        0.1192
     14 C         140.8782  144.2775  158.8003 C.2     1  UNL1        0.3205
     15 N         140.0176  144.9401  157.7657 N.2     1  UNL1        0.0097
     16 C         140.4475  144.9525  156.3288 C.2     1  UNL1        0.4717
     17 N         141.7380  144.3024  155.9263 N.2     1  UNL1        0.0158
     18 C         142.5986  143.6398  156.9609 C.2     1  UNL1        0.3714
     19 N         143.9126  142.9229  156.8639 N.2     1  UNL1       -0.0339
     20 C         144.2948  142.4674  158.2411 C.2     1  UNL1        0.2323
     21 C         143.2170  142.9028  159.1891 C.2     1  UNL1        0.0486
     22 C         142.1687  143.6274  158.3979 C.3     1  UNL1        0.2428
     23 C         139.4632  141.2239  165.6875 C.3     1  UNL1        0.0984
     24 C         139.8913  141.3761  167.1170 C.ar    1  UNL1       -0.0041
     25 C         139.6535  140.2628  168.0937 C.ar    1  UNL1       -0.0018
     26 C         140.0817  140.4150  169.5232 C.ar    1  UNL1        0.0111
     27 C         140.7475  141.6805  169.9760 C.ar    1  UNL1        0.0577
     28 CL        141.1756  141.8327  171.4056 Cl      1  UNL1       -0.0822
     29 C         140.9853  142.7939  168.9994 C.ar    1  UNL1        0.0111
     30 C         140.5572  142.6417  167.5698 C.ar    1  UNL1       -0.0018
     31 C         138.5300  140.1160  165.2979 C.3     1  UNL1        0.0504
     32 C         138.6725  139.4507  163.9610 C.ar    1  UNL1       -0.0202
     33 C         137.7821  139.8548  162.8235 C.ar    1  UNL1       -0.0042
     34 C         137.9246  139.1895  161.4868 C.ar    1  UNL1       -0.0003
     35 C         138.9575  138.1201  161.2875 C.ar    1  UNL1       -0.0000
     36 C         139.8479  137.7160  162.4250 C.ar    1  UNL1       -0.0003
     37 C         139.7054  138.3814  163.7618 C.ar    1  UNL1       -0.0042
@<TRIPOS>BOND
     1     5     6    1
     2     6     1    1
     3     1     2    2
     4     1     3   am
     5     3    23    1
     6    23    31    1
     7    31    32    1
     8    32    33   ar
     9    33    34   ar
    10    34    35   ar
    11    35    36   ar
    12    36    37   ar
    13    23    24    1
    14    24    25   ar
    15    25    26   ar
    16    26    27   ar
    17    27    28    1
    18    27    29   ar
    19    29    30   ar
    20     6     7    1
    21     7     8    1
    22     8     9    1
    23     9    14    1
    24    14    15    2
    25    15    16    1
    26    16    17    2
    27    17    18    1
    28    18    19    2
    29    19    20    1
    30    20    21    2
    31    21    22    1
    32     9    10    1
    33    10    11    1
    34    11     6    1
    35    37    32   ar
    36    30    24   ar
    37    22    14    1
    38    22    18    1
    39     5    12    1
    40     5    13    1
    41     3     4    1
@<TRIPOS>MOLECULE
*****
 37 41 0 0 0
SMALL
GASTEIGER

@<TRIPOS>ATOM
      1 C         140.5582  143.0690  164.6284 C.2     1  UNL1        0.2352
      2 O         141.9774  142.5912  164.7156 O.2     1  UNL1       -0.2737
      3 N         139.5473  142.6047  165.6348 N.am    1  UNL1       -0.3008
      4 H         138.6159  142.9183  165.5775 H       1  UNL1        0.1497
      5 N         139.3906  144.6026  164.6854 N.3     1  UNL1       -0.3162
      6 C         140.1497  144.0110  163.5350 C.3     1  UNL1        0.1166
      7 C         141.0508  143.0922  162.7642 C.3     1  UNL1        0.0739
      8 C         141.2797  143.3209  161.2996 C.3     1  UNL1        0.2039
      9 N         140.6076  144.4684  160.6056 N.pl3   1  UNL1       -0.1931
     10 C         139.7066  145.3872  161.3763 C.3     1  UNL1        0.2039
     11 C         139.4777  145.1585  162.8410 C.3     1  UNL1        0.0739
     12 H         139.5702  144.0566  165.5280 H       1  UNL1        0.1192
     13 H         138.3922  144.5882  164.4773 H       1  UNL1        0.1192
     14 C         140.8365  144.6971  159.1409 C.2     1  UNL1        0.3205
     15 N         141.9071  145.6452  158.6882 N.2     1  UNL1        0.0097
     16 C         142.1361  145.8738  157.2236 C.2     1  UNL1        0.4717
     17 N         141.2944  145.1544  156.2115 N.2     1  UNL1        0.0158
     18 C         140.2239  144.2063  156.6642 C.2     1  UNL1        0.3714
     19 N         139.2447  143.3613  155.9045 N.2     1  UNL1       -0.0339
     20 C         138.4105  142.6105  156.8997 C.2     1  UNL1        0.2323
     21 C         138.8742  142.9913  158.2744 C.2     1  UNL1        0.0486
     22 C         139.9949  143.9776  158.1289 C.3     1  UNL1        0.2428
     23 C         139.9557  141.6626  166.7283 C.3     1  UNL1        0.0984
     24 C         140.8519  142.1390  167.8328 C.ar    1  UNL1       -0.0041
     25 C         140.3297  143.0976  168.8616 C.ar    1  UNL1       -0.0018
     26 C         141.2259  143.5739  169.9661 C.ar    1  UNL1        0.0111
     27 C         142.6443  143.0917  170.0417 C.ar    1  UNL1        0.0577
     28 CL        143.5405  143.5681  171.1463 Cl      1  UNL1       -0.0822
     29 C         143.1665  142.1331  169.0129 C.ar    1  UNL1        0.0111
     30 C         142.2703  141.6567  167.9084 C.ar    1  UNL1       -0.0018
     31 C         139.4678  140.2442  166.7173 C.3     1  UNL1        0.0504
     32 C         139.9612  139.2895  165.6707 C.ar    1  UNL1       -0.0202
     33 C         141.4342  139.0732  165.4874 C.ar    1  UNL1       -0.0042
     34 C         141.9274  138.1186  164.4408 C.ar    1  UNL1       -0.0003
     35 C         140.9478  137.3803  163.5776 C.ar    1  UNL1       -0.0000
     36 C         139.4748  137.5966  163.7609 C.ar    1  UNL1       -0.0003
     37 C         138.9816  138.5512  164.8074 C.ar    1  UNL1       -0.0042
@<TRIPOS>BOND
     1     5     6    1
     2     6     1    1
     3     1     2    2
     4     1     3   am
     5     3    23    1
     6    23    31    1
     7    31    32    1
     8    32    33   ar
     9    33    34   ar
    10    34    35   ar
    11    35    36   ar
    12    36    37   ar
    13    23    24    1
    14    24    25   ar
    15    25    26   ar
    16    26    27   ar
    17    27    28    1
    18    27    29   ar
    19    29    30   ar
    20     6     7    1
    21     7     8    1
    22     8     9    1
    23     9    14    1
    24    14    15    2
    25    15    16    1
    26    16    17    2
    27    17    18    1
    28    18    19    2
    29    19    20    1
    30    20    21    2
    31    21    22    1
    32     9    10    1
    33    10    11    1
    34    11     6    1
    35    37    32   ar
    36    30    24   ar
    37    22    14    1
    38    22    18    1
    39     5    12    1
    40     5    13    1
    41     3     4    1
@<TRIPOS>MOLECULE
*****
 37 41 0 0 0
SMALL
GASTEIGER

@<TRIPOS>ATOM
      1 C         139.3361  143.3095  164.1361 C.2     1  UNL1        0.2352
      2 O         137.9475  143.5880  164.6302 O.2     1  UNL1       -0.2737
      3 N         140.1054  142.1420  164.6793 N.am    1  UNL1       -0.3008
      4 H         141.0168  141.9592  164.3550 H       1  UNL1        0.1497
      5 N         139.6482  145.2123  164.1607 N.3     1  UNL1       -0.3162
      6 C         139.9555  144.1985  163.0989 C.3     1  UNL1        0.1166
      7 C         140.0477  142.8759  162.3971 C.3     1  UNL1        0.0739
      8 C         140.6526  142.7944  161.0270 C.3     1  UNL1        0.2039
      9 N         141.1654  144.0355  160.3584 N.pl3   1  UNL1       -0.1931
     10 C         141.0732  145.3581  161.0601 C.3     1  UNL1        0.2039
     11 C         140.4682  145.4396  162.4303 C.3     1  UNL1        0.0739
     12 H         139.2100  144.7488  164.9567 H       1  UNL1        0.1192
     13 H         139.0127  145.9162  163.7851 H       1  UNL1        0.1192
     14 C         141.7703  143.9540  158.9882 C.2     1  UNL1        0.3205
     15 N         142.8956  142.9990  158.7208 N.2     1  UNL1        0.0097
     16 C         143.5005  142.9174  157.3507 C.2     1  UNL1        0.4717
     17 N         142.9801  143.7909  156.2478 N.2     1  UNL1        0.0158
     18 C         141.8547  144.7459  156.5152 C.2     1  UNL1        0.3714
     19 N         141.1379  145.7246  155.6330 N.2     1  UNL1       -0.0339
     20 C         140.0900  146.4111  156.4580 C.2     1  UNL1        0.2323
     21 C         140.1591  145.8566  157.8501 C.2     1  UNL1        0.0486
     22 C         141.2498  144.8274  157.8854 C.3     1  UNL1        0.2428
     23 C         139.4860  141.2529  165.7166 C.3     1  UNL1        0.0984
     24 C         139.8963  141.3786  167.1539 C.ar    1  UNL1       -0.0041
     25 C         140.5564  142.6355  167.6383 C.ar    1  UNL1       -0.0018
     26 C         140.9667  142.7612  169.0755 C.ar    1  UNL1        0.0111
     27 C         140.7170  141.6300  170.0285 C.ar    1  UNL1        0.0577
     28 CL        141.1273  141.7558  171.4658 Cl      1  UNL1       -0.0822
     29 C         140.0569  140.3732  169.5442 C.ar    1  UNL1        0.0111
     30 C         139.6466  140.2474  168.1068 C.ar    1  UNL1       -0.0018
     31 C         138.4563  140.2382  165.3166 C.3     1  UNL1        0.0504
     32 C         138.5521  139.5581  163.9830 C.ar    1  UNL1       -0.0202
     33 C         139.4399  138.3610  163.8136 C.ar    1  UNL1       -0.0042
     34 C         139.5356  137.6811  162.4800 C.ar    1  UNL1       -0.0003
     35 C         138.7436  138.1982  161.3159 C.ar    1  UNL1       -0.0000
     36 C         137.8557  139.3953  161.4852 C.ar    1  UNL1       -0.0003
     37 C         137.7600  140.0752  162.8188 C.ar    1  UNL1       -0.0042
@<TRIPOS>BOND
     1     5     6    1
     2     6     1    1
     3     1     2    2
     4     1     3   am
     5     3    23    1
     6    23    31    1
     7    31    32    1
     8    32    33   ar
     9    33    34   ar
    10    34    35   ar
    11    35    36   ar
    12    36    37   ar
    13    23    24    1
    14    24    25   ar
    15    25    26   ar
    16    26    27   ar
    17    27    28    1
    18    27    29   ar
    19    29    30   ar
    20     6     7    1
    21     7     8    1
    22     8     9    1
    23     9    14    1
    24    14    15    2
    25    15    16    1
    26    16    17    2
    27    17    18    1
    28    18    19    2
    29    19    20    1
    30    20    21    2
    31    21    22    1
    32     9    10    1
    33    10    11    1
    34    11     6    1
    35    37    32   ar
    36    30    24   ar
    37    22    14    1
    38    22    18    1
    39     5    12    1
    40     5    13    1
    41     3     4    1
@<TRIPOS>MOLECULE
*****
 37 41 0 0 0
SMALL
GASTEIGER

@<TRIPOS>ATOM
      1 C         139.2237  140.0995  164.6686 C.2     1  UNL1        0.2352
      2 O         138.0723  140.1572  165.6282 O.2     1  UNL1       -0.2737
      3 N         140.4537  140.9195  164.9228 N.am    1  UNL1       -0.3008
      4 H         141.2094  140.8816  164.2930 H       1  UNL1        0.1497
      5 N         138.9388  138.1972  164.5308 N.3     1  UNL1       -0.3162
      6 C         139.1452  139.2217  163.4548 C.3     1  UNL1        0.1166
      7 C         139.3789  140.5511  162.8003 C.3     1  UNL1        0.0739
      8 C         139.4624  140.6469  161.3058 C.3     1  UNL1        0.2039
      9 N         139.3123  139.4133  160.4656 N.pl3   1  UNL1       -0.1931
     10 C         139.0786  138.0840  161.1200 C.3     1  UNL1        0.2039
     11 C         138.9951  137.9882  162.6146 C.3     1  UNL1        0.0739
     12 H         138.9664  138.6522  165.4433 H       1  UNL1        0.1192
     13 H         139.6772  137.4955  164.4782 H       1  UNL1        0.1192
     14 C         139.3958  139.5091  158.9710 C.2     1  UNL1        0.3205
     15 N         138.2744  140.1348  158.1957 N.2     1  UNL1        0.0097
     16 C         138.3579  140.2307  156.7012 C.2     1  UNL1        0.4717
     17 N         139.5629  139.7008  155.9818 N.2     1  UNL1        0.0158
     18 C         140.6842  139.0752  156.7570 C.2     1  UNL1        0.3714
     19 N         141.9874  138.4703  156.3258 N.2     1  UNL1       -0.0339
     20 C         142.7092  138.0006  157.5539 C.2     1  UNL1        0.2323
     21 C         141.8522  138.3152  158.7441 C.2     1  UNL1        0.0486
     22 C         140.6007  138.9793  158.2516 C.3     1  UNL1        0.2428
     23 C         140.5323  141.7973  166.1366 C.3     1  UNL1        0.0984
     24 C         141.2341  141.3109  167.3698 C.ar    1  UNL1       -0.0041
     25 C         140.6987  140.1273  168.1199 C.ar    1  UNL1       -0.0018
     26 C         141.4006  139.6409  169.3531 C.ar    1  UNL1        0.0111
     27 C         142.6377  140.3380  169.8362 C.ar    1  UNL1        0.0577
     28 CL        143.3396  139.8515  171.0695 Cl      1  UNL1       -0.0822
     29 C         143.1731  141.5215  169.0862 C.ar    1  UNL1        0.0111
     30 C         142.4713  142.0080  167.8529 C.ar    1  UNL1       -0.0018
     31 C         139.9089  143.1616  166.1172 C.3     1  UNL1        0.0504
     32 C         139.7078  143.8757  164.8135 C.ar    1  UNL1       -0.0202
     33 C         140.8601  144.5760  164.1563 C.ar    1  UNL1       -0.0042
     34 C         140.6589  145.2901  162.8527 C.ar    1  UNL1       -0.0003
     35 C         139.3054  145.3038  162.2061 C.ar    1  UNL1       -0.0000
     36 C         138.1531  144.6035  162.8632 C.ar    1  UNL1       -0.0003
     37 C         138.3544  143.8895  164.1669 C.ar    1  UNL1       -0.0042
@<TRIPOS>BOND
     1     5     6    1
     2     6     1    1
     3     1     2    2
     4     1     3   am
     5     3    23    1
     6    23    31    1
     7    31    32    1
     8    32    33   ar
     9    33    34   ar
    10    34    35   ar
    11    35    36   ar
    12    36    37   ar
    13    23    24    1
    14    24    25   ar
    15    25    26   ar
    16    26    27   ar
    17    27    28    1
    18    27    29   ar
    19    29    30   ar
    20     6     7    1
    21     7     8    1
    22     8     9    1
    23     9    14    1
    24    14    15    2
    25    15    16    1
    26    16    17    2
    27    17    18    1
    28    18    19    2
    29    19    20    1
    30    20    21    2
    31    21    22    1
    32     9    10    1
    33    10    11    1
    34    11     6    1
    35    37    32   ar
    36    30    24   ar
    37    22    14    1
    38    22    18    1
    39     5    12    1
    40     5    13    1
    41     3     4    1
@<TRIPOS>MOLECULE
*****
 37 41 0 0 0
SMALL
GASTEIGER

@<TRIPOS>ATOM
      1 C         142.1973  140.1902  162.6713 C.2     1  UNL1        0.2352
      2 O         143.2847  140.9764  162.0009 O.2     1  UNL1       -0.2737
      3 N         140.9346  139.8710  161.9271 N.am    1  UNL1       -0.3008
      4 H         140.2209  139.3550  162.3671 H       1  UNL1        0.1497
      5 N         143.3612  138.8329  163.3934 N.3     1  UNL1       -0.3162
      6 C         142.3724  139.7232  164.0859 C.3     1  UNL1        0.1166
      7 C         141.3228  140.7757  164.2871 C.3     1  UNL1        0.0739
      8 C         140.7917  141.0520  165.6624 C.3     1  UNL1        0.2039
      9 N         141.3102  140.2758  166.8366 N.pl3   1  UNL1       -0.1931
     10 C         142.3599  139.2233  166.6354 C.3     1  UNL1        0.2039
     11 C         142.8909  138.9470  165.2600 C.3     1  UNL1        0.0739
     12 H         143.3596  139.0357  162.3938 H       1  UNL1        0.1192
     13 H         143.1033  137.8574  163.5428 H       1  UNL1        0.1192
     14 C         140.7791  140.5521  168.2120 C.2     1  UNL1        0.3205
     15 N         139.4749  139.9522  168.6468 N.2     1  UNL1        0.0097
     16 C         138.9438  140.2285  170.0221 C.2     1  UNL1        0.4717
     17 N         139.7168  141.1048  170.9626 N.2     1  UNL1        0.0158
     18 C         141.0210  141.7047  170.5278 C.2     1  UNL1        0.3714
     19 N         141.9975  142.6007  171.2305 N.2     1  UNL1       -0.0339
     20 C         143.1321  142.8781  170.2894 C.2     1  UNL1        0.2323
     21 C         142.8569  142.1536  169.0051 C.2     1  UNL1        0.0486
     22 C         141.5522  141.4284  169.1524 C.3     1  UNL1        0.2428
     23 C         140.7594  140.3380  160.5124 C.3     1  UNL1        0.0984
     24 C         140.9049  139.3669  159.3785 C.ar    1  UNL1       -0.0041
     25 C         142.2563  138.8157  159.0319 C.ar    1  UNL1       -0.0018
     26 C         142.4018  137.8445  157.8981 C.ar    1  UNL1        0.0111
     27 C         141.1961  137.4246  157.1108 C.ar    1  UNL1        0.0577
     28 CL        141.3417  136.4534  155.9769 Cl      1  UNL1       -0.0822
     29 C         139.8448  137.9758  157.4573 C.ar    1  UNL1        0.0111
     30 C         139.6992  138.9470  158.5912 C.ar    1  UNL1       -0.0018
     31 C         140.4386  141.7762  160.2317 C.3     1  UNL1        0.0504
     32 C         139.8035  142.6240  161.2937 C.ar    1  UNL1       -0.0202
     33 C         138.3535  142.4414  161.6317 C.ar    1  UNL1       -0.0042
     34 C         137.7185  143.2892  162.6938 C.ar    1  UNL1       -0.0003
     35 C         138.5334  144.3197  163.4177 C.ar    1  UNL1       -0.0000
     36 C         139.9834  144.5023  163.0797 C.ar    1  UNL1       -0.0003
     37 C         140.6184  143.6544  162.0177 C.ar    1  UNL1       -0.0042
@<TRIPOS>BOND
     1     5     6    1
     2     6     1    1
     3     1     2    2
     4     1     3   am
     5     3    23    1
     6    23    31    1
     7    31    32    1
     8    32    33   ar
     9    33    34   ar
    10    34    35   ar
    11    35    36   ar
    12    36    37   ar
    13    23    24    1
    14    24    25   ar
    15    25    26   ar
    16    26    27   ar
    17    27    28    1
    18    27    29   ar
    19    29    30   ar
    20     6     7    1
    21     7     8    1
    22     8     9    1
    23     9    14    1
    24    14    15    2
    25    15    16    1
    26    16    17    2
    27    17    18    1
    28    18    19    2
    29    19    20    1
    30    20    21    2
    31    21    22    1
    32     9    10    1
    33    10    11    1
    34    11     6    1
    35    37    32   ar
    36    30    24   ar
    37    22    14    1
    38    22    18    1
    39     5    12    1
    40     5    13    1
    41     3     4    1
