@<TRIPOS>MOLECULE
*****
 24 26 0 0 0
SMALL
GASTEIGER

@<TRIPOS>ATOM
      1 N         139.2068  146.6542  161.3150 N.pl3   1  UNL1       -0.2468
      2 C         139.5358  145.3615  162.0012 C.cat   1  UNL1        0.4198
      3 N         140.8507  145.1993  162.7047 N.2     1  UNL1       -0.0690
      4 C         141.1797  143.9066  163.3909 C.3     1  UNL1        0.2494
      5 C         141.5087  142.6140  164.0770 C.3     1  UNL1        0.0763
      6 C         142.8235  142.4518  164.7805 C.3     1  UNL1        0.0069
      7 C         143.8093  143.5822  164.7978 C.3     1  UNL1        0.0005
      8 C         143.4804  144.8748  164.1116 C.3     1  UNL1        0.0069
      9 C         142.1655  145.0370  163.4082 C.3     1  UNL1        0.0763
     10 N         140.1938  142.7762  163.3736 N.pl3   1  UNL1       -0.1985
     11 C         138.8790  142.9385  162.6701 C.cat   1  UNL1        0.3828
     12 N         138.5500  144.2311  161.9840 N.2     1  UNL1       -0.0088
     13 H         139.8538  147.3961  161.3264 H       1  UNL1        0.2415
     14 H         138.3438  146.7606  160.8533 H       1  UNL1        0.2415
     15 H         140.4098  141.9278  163.8240 H       1  UNL1        0.2483
     16 N         137.8931  141.8081  162.6528 N.pl3   1  UNL1       -0.2046
     17 H         137.0298  141.9149  162.1918 H       1  UNL1        0.2512
     18 C         138.2226  140.5150  163.3380 C.ar    1  UNL1        0.1090
     19 C         138.7228  139.3487  162.5382 C.ar    1  UNL1        0.0312
     20 C         139.0522  138.0556  163.2233 C.ar    1  UNL1        0.0032
     21 C         138.8816  137.9289  164.7082 C.ar    1  UNL1        0.0069
     22 C         138.3814  139.0951  165.5079 C.ar    1  UNL1        0.0372
     23 BR        138.2108  138.9684  166.9928 Br      1  UNL1       -0.0489
     24 C         138.0519  140.3883  164.8228 C.ar    1  UNL1        0.0379
@<TRIPOS>BOND
     1     1     2    1
     2     2     3    2
     3     3     4    1
     4     4     5    1
     5     5     6    1
     6     6     7    1
     7     7     8    1
     8     8     9    1
     9     4    10    1
    10    10    11    1
    11    11    16    1
    12    16    18    1
    13    18    19   ar
    14    19    20   ar
    15    20    21   ar
    16    21    22   ar
    17    22    23    1
    18    22    24   ar
    19    11    12    2
    20    12     2    1
    21     9     4    1
    22    24    18   ar
    23     1    13    1
    24     1    14    1
    25    10    15    1
    26    16    17    1
@<TRIPOS>MOLECULE
*****
 24 26 0 0 0
SMALL
GASTEIGER

@<TRIPOS>ATOM
      1 N         138.8542  146.2322  161.7329 N.pl3   1  UNL1       -0.2468
      2 C         139.3390  145.1701  162.6747 C.cat   1  UNL1        0.4198
      3 N         140.7809  145.1341  163.0864 N.2     1  UNL1       -0.0690
      4 C         141.2657  144.0720  164.0282 C.3     1  UNL1        0.2494
      5 C         141.7504  143.0099  164.9700 C.3     1  UNL1        0.0763
      6 C         143.1923  142.9740  165.3818 C.3     1  UNL1        0.0069
      7 C         144.1495  144.0001  164.8518 C.3     1  UNL1        0.0005
      8 C         143.6647  145.0622  163.9101 C.3     1  UNL1        0.0069
      9 C         142.2228  145.0982  163.4983 C.3     1  UNL1        0.0763
     10 N         140.3085  143.0458  164.5582 N.pl3   1  UNL1       -0.1985
     11 C         138.8666  143.0818  164.1464 C.cat   1  UNL1        0.3828
     12 N         138.3818  144.1439  163.2046 N.2     1  UNL1       -0.0088
     13 H         139.4824  146.9057  161.3850 H       1  UNL1        0.2415
     14 H         137.9078  146.2558  161.4626 H       1  UNL1        0.2415
     15 H         140.6267  142.3487  165.1763 H       1  UNL1        0.2483
     16 N         137.9094  142.0556  164.6763 N.pl3   1  UNL1       -0.2046
     17 H         137.0698  142.3403  165.1044 H       1  UNL1        0.2512
     18 C         138.2315  140.5958  164.5540 C.ar    1  UNL1        0.1090
     19 C         138.1946  139.7153  165.7679 C.ar    1  UNL1        0.0312
     20 C         138.5166  138.2554  165.6456 C.ar    1  UNL1        0.0032
     21 C         138.8756  137.6759  164.3094 C.ar    1  UNL1        0.0069
     22 C         138.9126  138.5563  163.0956 C.ar    1  UNL1        0.0372
     23 BR        139.2716  137.9768  161.7594 Br      1  UNL1       -0.0489
     24 C         138.5905  140.0163  163.2178 C.ar    1  UNL1        0.0379
@<TRIPOS>BOND
     1     1     2    1
     2     2     3    2
     3     3     4    1
     4     4     5    1
     5     5     6    1
     6     6     7    1
     7     7     8    1
     8     8     9    1
     9     4    10    1
    10    10    11    1
    11    11    16    1
    12    16    18    1
    13    18    19   ar
    14    19    20   ar
    15    20    21   ar
    16    21    22   ar
    17    22    23    1
    18    22    24   ar
    19    11    12    2
    20    12     2    1
    21     9     4    1
    22    24    18   ar
    23     1    13    1
    24     1    14    1
    25    10    15    1
    26    16    17    1
@<TRIPOS>MOLECULE
*****
 24 26 0 0 0
SMALL
GASTEIGER

@<TRIPOS>ATOM
      1 N         136.9616  137.5984  167.6664 N.pl3   1  UNL1       -0.2468
      2 C         137.8818  138.7262  167.3037 C.cat   1  UNL1        0.4198
      3 N         138.6663  139.4274  168.3726 N.2     1  UNL1       -0.0690
      4 C         139.5865  140.5552  168.0100 C.3     1  UNL1        0.2494
      5 C         140.5066  141.6829  167.6472 C.3     1  UNL1        0.0763
      6 C         141.2911  142.3841  168.7162 C.3     1  UNL1        0.0069
      7 C         141.1556  141.9576  170.1479 C.3     1  UNL1        0.0005
      8 C         140.2354  140.8299  170.5106 C.3     1  UNL1        0.0069
      9 C         139.4509  140.1287  169.4416 C.3     1  UNL1        0.0763
     10 N         139.7221  140.9817  166.5783 N.pl3   1  UNL1       -0.1985
     11 C         138.9375  140.2804  165.5093 C.cat   1  UNL1        0.3828
     12 N         138.0174  139.1527  165.8720 N.2     1  UNL1       -0.0088
     13 H         136.8726  137.3185  168.6060 H       1  UNL1        0.2415
     14 H         136.4467  137.1382  166.9647 H       1  UNL1        0.2415
     15 H         140.3260  141.7218  166.3402 H       1  UNL1        0.2483
     16 N         139.0731  140.7068  164.0776 N.pl3   1  UNL1       -0.2046
     17 H         139.1570  140.0295  163.3680 H       1  UNL1        0.2512
     18 C         139.0808  142.1652  163.7270 C.ar    1  UNL1        0.1090
     19 C         137.8014  142.8537  163.3537 C.ar    1  UNL1        0.0312
     20 C         137.8092  144.3121  163.0030 C.ar    1  UNL1        0.0032
     21 C         139.0963  145.0821  163.0257 C.ar    1  UNL1        0.0069
     22 C         140.3756  144.3937  163.3990 C.ar    1  UNL1        0.0372
     23 BR        141.6627  145.1637  163.4216 Br      1  UNL1       -0.0489
     24 C         140.3679  142.9352  163.7496 C.ar    1  UNL1        0.0379
@<TRIPOS>BOND
     1     1     2    1
     2     2     3    2
     3     3     4    1
     4     4     5    1
     5     5     6    1
     6     6     7    1
     7     7     8    1
     8     8     9    1
     9     4    10    1
    10    10    11    1
    11    11    16    1
    12    16    18    1
    13    18    19   ar
    14    19    20   ar
    15    20    21   ar
    16    21    22   ar
    17    22    23    1
    18    22    24   ar
    19    11    12    2
    20    12     2    1
    21     9     4    1
    22    24    18   ar
    23     1    13    1
    24     1    14    1
    25    10    15    1
    26    16    17    1
@<TRIPOS>MOLECULE
*****
 24 26 0 0 0
SMALL
GASTEIGER

@<TRIPOS>ATOM
      1 N         138.5921  137.4999  162.3676 N.pl3   1  UNL1       -0.2468
      2 C         138.5136  138.6351  163.3449 C.cat   1  UNL1        0.4198
      3 N         138.3211  140.0382  162.8507 N.2     1  UNL1       -0.0690
      4 C         138.2426  141.1735  163.8280 C.3     1  UNL1        0.2494
      5 C         138.1641  142.3087  164.8053 C.3     1  UNL1        0.0763
      6 C         137.9715  143.7117  164.3111 C.3     1  UNL1        0.0069
      7 C         137.8574  143.9796  162.8397 C.3     1  UNL1        0.0005
      8 C         137.9359  142.8444  161.8624 C.3     1  UNL1        0.0069
      9 C         138.1285  141.4414  162.3566 C.3     1  UNL1        0.0763
     10 N         138.3567  140.9056  165.2995 N.pl3   1  UNL1       -0.1985
     11 C         138.5493  139.5024  165.7937 C.cat   1  UNL1        0.3828
     12 N         138.6277  138.3673  164.8164 N.2     1  UNL1       -0.0088
     13 H         138.5172  137.6757  161.4018 H       1  UNL1        0.2415
     14 H         138.7185  136.5790  162.6919 H       1  UNL1        0.2415
     15 H         138.3052  141.6507  165.9409 H       1  UNL1        0.2483
     16 N         138.6634  139.2346  167.2651 N.pl3   1  UNL1       -0.2046
     17 H         138.1626  138.4900  167.6702 H       1  UNL1        0.2512
     18 C         139.5404  140.1011  168.1194 C.ar    1  UNL1        0.1090
     19 C         139.1616  140.3783  169.5441 C.ar    1  UNL1        0.0312
     20 C         140.0386  141.2448  170.3984 C.ar    1  UNL1        0.0032
     21 C         141.2945  141.8342  169.8281 C.ar    1  UNL1        0.0069
     22 C         141.6734  141.5570  168.4034 C.ar    1  UNL1        0.0372
     23 BR        142.9293  142.1464  167.8331 Br      1  UNL1       -0.0489
     24 C         140.7963  140.6905  167.5491 C.ar    1  UNL1        0.0379
@<TRIPOS>BOND
     1     1     2    1
     2     2     3    2
     3     3     4    1
     4     4     5    1
     5     5     6    1
     6     6     7    1
     7     7     8    1
     8     8     9    1
     9     4    10    1
    10    10    11    1
    11    11    16    1
    12    16    18    1
    13    18    19   ar
    14    19    20   ar
    15    20    21   ar
    16    21    22   ar
    17    22    23    1
    18    22    24   ar
    19    11    12    2
    20    12     2    1
    21     9     4    1
    22    24    18   ar
    23     1    13    1
    24     1    14    1
    25    10    15    1
    26    16    17    1
@<TRIPOS>MOLECULE
*****
 24 26 0 0 0
SMALL
GASTEIGER

@<TRIPOS>ATOM
      1 N         140.3357  140.2151  171.7198 N.pl3   1  UNL1       -0.2468
      2 C         140.3451  140.3203  170.2235 C.cat   1  UNL1        0.4198
      3 N         141.4386  141.0791  169.5318 N.2     1  UNL1       -0.0690
      4 C         141.4479  141.1843  168.0355 C.3     1  UNL1        0.2494
      5 C         141.4573  141.2895  166.5393 C.3     1  UNL1        0.0763
      6 C         142.5508  142.0483  165.8476 C.3     1  UNL1        0.0069
      7 C         143.6349  142.7019  166.6522 C.3     1  UNL1        0.0005
      8 C         143.6256  142.5968  168.1484 C.3     1  UNL1        0.0069
      9 C         142.5321  141.8380  168.8401 C.3     1  UNL1        0.0763
     10 N         140.3638  140.5307  167.2309 N.pl3   1  UNL1       -0.1985
     11 C         139.2703  139.7718  167.9227 C.cat   1  UNL1        0.3828
     12 N         139.2609  139.6667  169.4189 N.2     1  UNL1       -0.0088
     13 H         141.0472  140.6442  172.2479 H       1  UNL1        0.2415
     14 H         139.6180  139.7171  172.1738 H       1  UNL1        0.2415
     15 H         140.3699  140.5997  166.2489 H       1  UNL1        0.2483
     16 N         138.1861  139.1182  167.1181 N.pl3   1  UNL1       -0.2046
     17 H         137.3842  138.7657  167.5674 H       1  UNL1        0.2512
     18 C         138.3238  139.0016  165.6290 C.ar    1  UNL1        0.1090
     19 C         138.8046  137.7185  165.0184 C.ar    1  UNL1        0.0312
     20 C         138.9424  137.6020  163.5293 C.ar    1  UNL1        0.0032
     21 C         138.5993  138.7683  162.6508 C.ar    1  UNL1        0.0069
     22 C         138.1185  140.0513  163.2613 C.ar    1  UNL1        0.0372
     23 BR        137.7754  141.2177  162.3827 Br      1  UNL1       -0.0489
     24 C         137.9808  140.1680  164.7505 C.ar    1  UNL1        0.0379
@<TRIPOS>BOND
     1     1     2    1
     2     2     3    2
     3     3     4    1
     4     4     5    1
     5     5     6    1
     6     6     7    1
     7     7     8    1
     8     8     9    1
     9     4    10    1
    10    10    11    1
    11    11    16    1
    12    16    18    1
    13    18    19   ar
    14    19    20   ar
    15    20    21   ar
    16    21    22   ar
    17    22    23    1
    18    22    24   ar
    19    11    12    2
    20    12     2    1
    21     9     4    1
    22    24    18   ar
    23     1    13    1
    24     1    14    1
    25    10    15    1
    26    16    17    1
@<TRIPOS>MOLECULE
*****
 24 26 0 0 0
SMALL
GASTEIGER

@<TRIPOS>ATOM
      1 N         137.6029  139.5979  170.7112 N.pl3   1  UNL1       -0.2468
      2 C         138.6330  139.9175  169.6686 C.cat   1  UNL1        0.4198
      3 N         139.8458  140.7209  170.0341 N.2     1  UNL1       -0.0690
      4 C         140.8759  141.0405  168.9916 C.3     1  UNL1        0.2494
      5 C         141.9059  141.3600  167.9491 C.3     1  UNL1        0.0763
      6 C         143.1187  142.1634  168.3146 C.3     1  UNL1        0.0069
      7 C         143.3015  142.6472  169.7226 C.3     1  UNL1        0.0005
      8 C         142.2714  142.3277  170.7651 C.3     1  UNL1        0.0069
      9 C         141.0587  141.5243  170.3996 C.3     1  UNL1        0.0763
     10 N         140.6931  140.5566  167.5836 N.pl3   1  UNL1       -0.1985
     11 C         139.4802  139.7532  167.2181 C.cat   1  UNL1        0.3828
     12 N         138.4502  139.4336  168.2606 N.2     1  UNL1       -0.0088
     13 H         137.7228  139.9154  171.6353 H       1  UNL1        0.2415
     14 H         136.8069  139.0705  170.4713 H       1  UNL1        0.2415
     15 H         141.3692  140.7664  166.8993 H       1  UNL1        0.2483
     16 N         139.2975  139.2694  165.8101 N.pl3   1  UNL1       -0.2046
     17 H         139.5386  138.3450  165.5720 H       1  UNL1        0.2512
     18 C         138.7473  140.1938  164.7648 C.ar    1  UNL1        0.1090
     19 C         138.3397  139.6543  163.4259 C.ar    1  UNL1        0.0312
     20 C         137.7896  140.5788  162.3806 C.ar    1  UNL1        0.0032
     21 C         137.6470  142.0428  162.6742 C.ar    1  UNL1        0.0069
     22 C         138.0546  142.5824  164.0131 C.ar    1  UNL1        0.0372
     23 BR        137.9121  144.0465  164.3067 Br      1  UNL1       -0.0489
     24 C         138.6048  141.6579  165.0585 C.ar    1  UNL1        0.0379
@<TRIPOS>BOND
     1     1     2    1
     2     2     3    2
     3     3     4    1
     4     4     5    1
     5     5     6    1
     6     6     7    1
     7     7     8    1
     8     8     9    1
     9     4    10    1
    10    10    11    1
    11    11    16    1
    12    16    18    1
    13    18    19   ar
    14    19    20   ar
    15    20    21   ar
    16    21    22   ar
    17    22    23    1
    18    22    24   ar
    19    11    12    2
    20    12     2    1
    21     9     4    1
    22    24    18   ar
    23     1    13    1
    24     1    14    1
    25    10    15    1
    26    16    17    1
@<TRIPOS>MOLECULE
*****
 24 26 0 0 0
SMALL
GASTEIGER

@<TRIPOS>ATOM
      1 N         143.9253  138.4412  165.9088 N.pl3   1  UNL1       -0.2468
      2 C         142.6211  138.9329  166.4633 C.cat   1  UNL1        0.4198
      3 N         142.5496  139.4419  167.8725 N.2     1  UNL1       -0.0690
      4 C         141.2454  139.9336  168.4271 C.3     1  UNL1        0.2494
      5 C         139.9413  140.4252  168.9816 C.3     1  UNL1        0.0763
      6 C         139.8697  140.9342  170.3907 C.3     1  UNL1        0.0069
      7 C         141.1023  140.9514  171.2454 C.3     1  UNL1        0.0005
      8 C         142.4064  140.4598  170.6909 C.3     1  UNL1        0.0069
      9 C         142.4780  139.9508  169.2818 C.3     1  UNL1        0.0763
     10 N         140.0128  139.9163  167.5724 N.pl3   1  UNL1       -0.1985
     11 C         140.0844  139.4073  166.1631 C.cat   1  UNL1        0.3828
     12 N         141.3886  138.9157  165.6086 N.2     1  UNL1       -0.0088
     13 H         144.7343  138.4525  166.4697 H       1  UNL1        0.2415
     14 H         143.9722  138.1072  164.9839 H       1  UNL1        0.2415
     15 H         139.1569  140.2390  167.9363 H       1  UNL1        0.2483
     16 N         138.8519  139.3901  165.3084 N.pl3   1  UNL1       -0.2046
     17 H         138.2844  138.5861  165.2791 H       1  UNL1        0.2512
     18 C         138.4840  140.5977  164.4984 C.ar    1  UNL1        0.1090
     19 C         137.9155  140.4316  163.1202 C.ar    1  UNL1        0.0312
     20 C         137.5476  141.6392  162.3101 C.ar    1  UNL1        0.0032
     21 C         137.7481  143.0130  162.8782 C.ar    1  UNL1        0.0069
     22 C         138.3165  143.1791  164.2563 C.ar    1  UNL1        0.0372
     23 BR        138.5170  144.5528  164.8243 Br      1  UNL1       -0.0489
     24 C         138.6844  141.9714  165.0664 C.ar    1  UNL1        0.0379
@<TRIPOS>BOND
     1     1     2    1
     2     2     3    2
     3     3     4    1
     4     4     5    1
     5     5     6    1
     6     6     7    1
     7     7     8    1
     8     8     9    1
     9     4    10    1
    10    10    11    1
    11    11    16    1
    12    16    18    1
    13    18    19   ar
    14    19    20   ar
    15    20    21   ar
    16    21    22   ar
    17    22    23    1
    18    22    24   ar
    19    11    12    2
    20    12     2    1
    21     9     4    1
    22    24    18   ar
    23     1    13    1
    24     1    14    1
    25    10    15    1
    26    16    17    1
@<TRIPOS>MOLECULE
*****
 24 26 0 0 0
SMALL
GASTEIGER

@<TRIPOS>ATOM
      1 N         137.4740  144.1213  162.8154 N.pl3   1  UNL1       -0.2468
      2 C         138.6388  143.5155  163.5410 C.cat   1  UNL1        0.4198
      3 N         139.9862  144.1714  163.4762 N.2     1  UNL1       -0.0690
      4 C         141.1509  143.5656  164.2018 C.3     1  UNL1        0.2494
      5 C         142.3156  142.9597  164.9273 C.3     1  UNL1        0.0763
      6 C         143.6630  143.6157  164.8625 C.3     1  UNL1        0.0069
      7 C         143.8457  144.8775  164.0723 C.3     1  UNL1        0.0005
      8 C         142.6810  145.4834  163.3468 C.3     1  UNL1        0.0069
      9 C         141.3336  144.8274  163.4115 C.3     1  UNL1        0.0763
     10 N         140.9682  142.3038  164.9920 N.pl3   1  UNL1       -0.1985
     11 C         139.6208  141.6478  165.0567 C.cat   1  UNL1        0.3828
     12 N         138.4561  142.2537  164.3312 N.2     1  UNL1       -0.0088
     13 H         137.5939  144.9495  162.2968 H       1  UNL1        0.2415
     14 H         136.5896  143.6908  162.8579 H       1  UNL1        0.2415
     15 H         141.7327  141.9061  165.4682 H       1  UNL1        0.2483
     16 N         139.4381  140.3860  165.8470 N.pl3   1  UNL1       -0.2046
     17 H         138.7021  139.7700  165.6276 H       1  UNL1        0.2512
     18 C         140.3767  140.0628  166.9714 C.ar    1  UNL1        0.1090
     19 C         141.7448  139.5237  166.6750 C.ar    1  UNL1        0.0312
     20 C         142.6834  139.2005  167.7995 C.ar    1  UNL1        0.0032
     21 C         142.2540  139.4163  169.2204 C.ar    1  UNL1        0.0069
     22 C         140.8859  139.9553  169.5169 C.ar    1  UNL1        0.0372
     23 BR        140.4565  140.1711  170.9378 Br      1  UNL1       -0.0489
     24 C         139.9473  140.2786  168.3924 C.ar    1  UNL1        0.0379
@<TRIPOS>BOND
     1     1     2    1
     2     2     3    2
     3     3     4    1
     4     4     5    1
     5     5     6    1
     6     6     7    1
     7     7     8    1
     8     8     9    1
     9     4    10    1
    10    10    11    1
    11    11    16    1
    12    16    18    1
    13    18    19   ar
    14    19    20   ar
    15    20    21   ar
    16    21    22   ar
    17    22    23    1
    18    22    24   ar
    19    11    12    2
    20    12     2    1
    21     9     4    1
    22    24    18   ar
    23     1    13    1
    24     1    14    1
    25    10    15    1
    26    16    17    1
@<TRIPOS>MOLECULE
*****
 24 26 0 0 0
SMALL
GASTEIGER

@<TRIPOS>ATOM
      1 N         141.6117  145.9134  163.4310 N.pl3   1  UNL1       -0.2468
      2 C         141.6884  144.5075  163.9483 C.cat   1  UNL1        0.4198
      3 N         142.9476  143.7115  163.7730 N.2     1  UNL1       -0.0690
      4 C         143.0244  142.3056  164.2904 C.3     1  UNL1        0.2494
      5 C         143.1010  140.8997  164.8077 C.3     1  UNL1        0.0763
      6 C         144.3602  140.1037  164.6325 C.3     1  UNL1        0.0069
      7 C         145.5428  140.7136  163.9399 C.3     1  UNL1        0.0005
      8 C         145.4661  142.1194  163.4225 C.3     1  UNL1        0.0069
      9 C         144.2069  142.9154  163.5978 C.3     1  UNL1        0.0763
     10 N         141.8418  141.6957  164.9830 N.pl3   1  UNL1       -0.1985
     11 C         140.5826  142.4918  165.1583 C.cat   1  UNL1        0.3828
     12 N         140.5059  143.8976  164.6409 N.2     1  UNL1       -0.0088
     13 H         142.3878  146.3137  162.9764 H       1  UNL1        0.2415
     14 H         140.7852  146.4358  163.5460 H       1  UNL1        0.2415
     15 H         141.8922  140.7730  165.3226 H       1  UNL1        0.2483
     16 N         139.4000  141.8819  165.8509 N.pl3   1  UNL1       -0.2046
     17 H         138.8411  142.4315  166.4465 H       1  UNL1        0.2512
     18 C         139.0692  140.4348  165.6359 C.ar    1  UNL1        0.1090
     19 C         138.5878  139.5970  166.7834 C.ar    1  UNL1        0.0312
     20 C         138.2569  138.1499  166.5685 C.ar    1  UNL1        0.0032
     21 C         138.4073  137.5404  165.2062 C.ar    1  UNL1        0.0069
     22 C         138.8887  138.3780  164.0588 C.ar    1  UNL1        0.0372
     23 BR        139.0392  137.7685  162.6964 Br      1  UNL1       -0.0489
     24 C         139.2196  139.8253  164.2736 C.ar    1  UNL1        0.0379
@<TRIPOS>BOND
     1     1     2    1
     2     2     3    2
     3     3     4    1
     4     4     5    1
     5     5     6    1
     6     6     7    1
     7     7     8    1
     8     8     9    1
     9     4    10    1
    10    10    11    1
    11    11    16    1
    12    16    18    1
    13    18    19   ar
    14    19    20   ar
    15    20    21   ar
    16    21    22   ar
    17    22    23    1
    18    22    24   ar
    19    11    12    2
    20    12     2    1
    21     9     4    1
    22    24    18   ar
    23     1    13    1
    24     1    14    1
    25    10    15    1
    26    16    17    1
