@<TRIPOS>MOLECULE
*****
 40 45 0 0 0
SMALL
GASTEIGER

@<TRIPOS>ATOM
      1 C         137.7258  142.6514  163.8831 C.3     1  UNL1        0.0932
      2 C         137.6637  142.5978  162.3853 C.3     1  UNL1        0.0286
      3 C         137.7478  141.2777  161.6780 C.3     1  UNL1        0.0193
      4 C         137.8940  140.0113  162.4684 C.3     1  UNL1        0.0700
      5 C         137.9561  140.0649  163.9662 C.3     1  UNL1        0.0193
      6 C         137.8720  141.3851  164.6735 C.3     1  UNL1        0.0286
      7 C         137.8520  140.7110  162.9004 C.3     1  UNL1        0.1562
      8 O         137.7759  141.9046  163.5400 O.3     1  UNL1       -0.3572
      9 N         137.9782  138.6912  161.7611 N.3     1  UNL1       -0.2926
     10 H         137.3920  138.7648  160.9296 H       1  UNL1        0.1236
     11 C         139.3084  138.1665  161.3081 C.3     1  UNL1        0.1152
     12 C         140.5144  138.3215  162.1864 C.ar    1  UNL1        0.0765
     13 C         140.6646  137.4691  163.4115 C.ar    1  UNL1        0.0193
     14 C         141.8706  137.6242  164.2898 C.ar    1  UNL1        0.0411
     15 C         142.9265  138.6316  163.9430 C.ar    1  UNL1        0.1708
     16 C         142.7763  139.4840  162.7180 C.ar    1  UNL1        0.1682
     17 N         141.5702  139.3290  161.8396 N.ar    1  UNL1       -0.2304
     18 N         143.8321  140.4915  162.3712 N.am    1  UNL1       -0.2639
     19 C         145.0381  140.6466  163.2495 C.2     1  UNL1        0.2718
     20 O         146.0939  141.6540  162.9027 O.2     1  UNL1       -0.2707
     21 C         145.1884  139.7941  164.4746 C.3     1  UNL1        0.2898
     22 O         144.1325  138.7867  164.8214 O.3     1  UNL1       -0.4628
     23 H         143.7335  141.0510  161.5672 H       1  UNL1        0.1565
     24 C         137.6417  143.9715  164.5904 C.3     1  UNL1        0.0319
     25 C         138.8802  144.7924  164.7962 C.3     1  UNL1        0.0302
     26 C         140.9214  142.1926  167.8497 C.ar    1  UNL1        0.2250
     27 C         142.2690  141.6043  167.5532 C.ar    1  UNL1        0.0593
     28 C         142.9362  141.8826  166.2389 C.ar    1  UNL1        0.0254
     29 C         142.2558  142.7492  165.2211 C.ar    1  UNL1        0.0988
     30 N         142.9229  143.0275  163.9068 N.ar    1  UNL1       -0.2426
     31 C         142.2425  143.8941  162.8890 C.ar    1  UNL1        0.0967
     32 C         140.8949  144.4825  163.1854 C.ar    1  UNL1        0.0236
     33 C         140.2277  144.2041  164.4997 C.ar    1  UNL1       -0.0030
     34 C         140.9082  143.3375  165.5176 C.ar    1  UNL1        0.0978
     35 N         140.2410  143.0592  166.8319 N.ar    1  UNL1       -0.2105
     36 C         140.2145  145.3490  162.1676 C.3     1  UNL1        0.1649
     37 O         140.2574  146.8421  162.3048 O.3     1  UNL1       -0.3772
     38 H         139.7670  147.1081  163.0983 H       1  UNL1        0.2109
     39 C         139.5492  140.6090  169.3857 C.3     1  UNL1        0.2542
     40 O         140.2543  141.9143  169.1641 O.3     1  UNL1       -0.4561
@<TRIPOS>BOND
     1    39    40    1
     2    40    26    1
     3    26    27   ar
     4    27    28   ar
     5    28    29   ar
     6    29    30   ar
     7    30    31   ar
     8    31    32   ar
     9    32    36    1
    10    36    37    1
    11    32    33   ar
    12    33    25    1
    13    25    24    1
    14    24     1    1
    15     1     2    1
    16     2     3    1
    17     3     4    1
    18     4     9    1
    19     9    11    1
    20    11    12    1
    21    12    13   ar
    22    13    14   ar
    23    14    15   ar
    24    15    16   ar
    25    16    17   ar
    26    16    18    1
    27    18    19   am
    28    19    20    2
    29    19    21    1
    30    21    22    1
    31     4     5    1
    32     5     6    1
    33     4     7    1
    34     7     8    1
    35    33    34   ar
    36    34    35   ar
    37    35    26   ar
    38    34    29   ar
    39     6     1    1
    40     8     1    1
    41    17    12   ar
    42    22    15    1
    43    37    38    1
    44     9    10    1
    45    18    23    1
@<TRIPOS>MOLECULE
*****
 40 45 0 0 0
SMALL
GASTEIGER

@<TRIPOS>ATOM
      1 C         142.0555  137.9991  163.9293 C.3     1  UNL1        0.0932
      2 C         142.9877  138.4540  165.0129 C.3     1  UNL1        0.0286
      3 C         144.1570  139.3312  164.6769 C.3     1  UNL1        0.0193
      4 C         144.3944  139.7536  163.2573 C.3     1  UNL1        0.0700
      5 C         143.4623  139.2987  162.1737 C.3     1  UNL1        0.0193
      6 C         142.2928  138.4214  162.5097 C.3     1  UNL1        0.0286
      7 C         143.7402  139.2724  163.3928 C.3     1  UNL1        0.1562
      8 O         142.6828  138.4791  163.6965 O.3     1  UNL1       -0.3572
      9 N         145.5638  140.6309  162.9213 N.3     1  UNL1       -0.2926
     10 H         145.6261  140.6615  161.9037 H       1  UNL1        0.1236
     11 C         145.5972  142.0520  163.4001 C.3     1  UNL1        0.1152
     12 C         144.3879  142.9253  163.2423 C.ar    1  UNL1        0.0765
     13 C         143.7201  143.5075  164.4527 C.ar    1  UNL1        0.0193
     14 C         142.5108  144.3808  164.2949 C.ar    1  UNL1        0.0411
     15 C         141.9693  144.6719  162.9267 C.ar    1  UNL1        0.1708
     16 C         142.6371  144.0898  161.7163 C.ar    1  UNL1        0.1682
     17 N         143.8464  143.2164  161.8741 N.ar    1  UNL1       -0.2304
     18 N         142.0956  144.3809  160.3481 N.am    1  UNL1       -0.2639
     19 C         140.8863  145.2542  160.1903 C.2     1  UNL1        0.2718
     20 O         140.3447  145.5453  158.8221 O.2     1  UNL1       -0.2707
     21 C         140.2184  145.8364  161.4007 C.3     1  UNL1        0.2898
     22 O         140.7599  145.5452  162.7689 O.3     1  UNL1       -0.4628
     23 H         142.5339  143.9988  159.5537 H       1  UNL1        0.1565
     24 C         140.8862  137.1218  164.2652 C.3     1  UNL1        0.0319
     25 C         139.6096  137.7319  164.7636 C.3     1  UNL1        0.0302
     26 C         140.6824  141.2859  167.3069 C.ar    1  UNL1        0.2250
     27 C         140.2903  142.6663  166.8703 C.ar    1  UNL1        0.0593
     28 C         139.5407  142.8621  165.5859 C.ar    1  UNL1        0.0254
     29 C         139.1831  141.6775  164.7381 C.ar    1  UNL1        0.0988
     30 N         138.4334  141.8733  163.4537 N.ar    1  UNL1       -0.2426
     31 C         138.0758  140.6886  162.6059 C.ar    1  UNL1        0.0967
     32 C         138.4679  139.3081  163.0426 C.ar    1  UNL1        0.0236
     33 C         139.2175  139.1123  164.3270 C.ar    1  UNL1       -0.0030
     34 C         139.5751  140.2971  165.1747 C.ar    1  UNL1        0.0978
     35 N         140.3248  140.1013  166.4591 N.ar    1  UNL1       -0.2105
     36 C         138.1103  138.1235  162.1948 C.3     1  UNL1        0.1649
     37 O         139.1104  137.5650  161.2264 O.3     1  UNL1       -0.3772
     38 H         139.2845  138.2167  160.5294 H       1  UNL1        0.2109
     39 C         142.6306  140.1891  168.6303 C.3     1  UNL1        0.2542
     40 O         141.4320  141.0901  168.5913 O.3     1  UNL1       -0.4561
@<TRIPOS>BOND
     1    39    40    1
     2    40    26    1
     3    26    27   ar
     4    27    28   ar
     5    28    29   ar
     6    29    30   ar
     7    30    31   ar
     8    31    32   ar
     9    32    36    1
    10    36    37    1
    11    32    33   ar
    12    33    25    1
    13    25    24    1
    14    24     1    1
    15     1     2    1
    16     2     3    1
    17     3     4    1
    18     4     9    1
    19     9    11    1
    20    11    12    1
    21    12    13   ar
    22    13    14   ar
    23    14    15   ar
    24    15    16   ar
    25    16    17   ar
    26    16    18    1
    27    18    19   am
    28    19    20    2
    29    19    21    1
    30    21    22    1
    31     4     5    1
    32     5     6    1
    33     4     7    1
    34     7     8    1
    35    33    34   ar
    36    34    35   ar
    37    35    26   ar
    38    34    29   ar
    39     6     1    1
    40     8     1    1
    41    17    12   ar
    42    22    15    1
    43    37    38    1
    44     9    10    1
    45    18    23    1
@<TRIPOS>MOLECULE
*****
 40 45 0 0 0
SMALL
GASTEIGER

@<TRIPOS>ATOM
      1 C         140.4146  137.7780  164.4494 C.3     1  UNL1        0.0932
      2 C         140.3407  137.6338  162.9582 C.3     1  UNL1        0.0286
      3 C         141.5623  137.8699  162.1204 C.3     1  UNL1        0.0193
      4 C         142.8579  138.2503  162.7739 C.3     1  UNL1        0.0700
      5 C         142.9318  138.3945  164.2651 C.3     1  UNL1        0.0193
      6 C         141.7101  138.1583  165.1029 C.3     1  UNL1        0.0286
      7 C         142.2152  138.1311  163.2745 C.3     1  UNL1        0.1562
      8 O         141.1105  137.9176  164.0321 O.3     1  UNL1       -0.3572
      9 N         144.0795  138.4864  161.9361 N.3     1  UNL1       -0.2926
     10 H         144.0864  137.7645  161.2156 H       1  UNL1        0.1236
     11 C         144.2660  139.7995  161.2353 C.3     1  UNL1        0.1152
     12 C         143.8111  141.0702  161.8898 C.ar    1  UNL1        0.0765
     13 C         144.5596  141.6157  163.0697 C.ar    1  UNL1        0.0193
     14 C         144.1048  142.8864  163.7242 C.ar    1  UNL1        0.0411
     15 C         142.9015  143.6117  163.1988 C.ar    1  UNL1        0.1708
     16 C         142.1530  143.0662  162.0189 C.ar    1  UNL1        0.1682
     17 N         142.6078  141.7954  161.3643 N.ar    1  UNL1       -0.2304
     18 N         140.9497  143.7914  161.4934 N.am    1  UNL1       -0.2639
     19 C         140.4949  145.0622  162.1479 C.2     1  UNL1        0.2718
     20 O         139.2916  145.7874  161.6224 O.2     1  UNL1       -0.2707
     21 C         141.2434  145.6077  163.3279 C.3     1  UNL1        0.2898
     22 O         142.4466  144.8824  163.8533 O.3     1  UNL1       -0.4628
     23 H         140.4585  143.4334  160.7190 H       1  UNL1        0.1565
     24 C         139.1930  137.5419  165.2872 C.3     1  UNL1        0.0319
     25 C         138.3190  138.6957  165.6809 C.3     1  UNL1        0.0302
     26 C         140.8485  140.4324  168.9727 C.ar    1  UNL1        0.2250
     27 C         141.3644  141.8364  168.8608 C.ar    1  UNL1        0.0593
     28 C         141.0372  142.6615  167.6517 C.ar    1  UNL1        0.0254
     29 C         140.1940  142.0826  166.5544 C.ar    1  UNL1        0.0988
     30 N         139.8668  142.9078  165.3452 N.ar    1  UNL1       -0.2426
     31 C         139.0237  142.3289  164.2480 C.ar    1  UNL1        0.0967
     32 C         138.5077  140.9248  164.3599 C.ar    1  UNL1        0.0236
     33 C         138.8350  140.0997  165.5690 C.ar    1  UNL1       -0.0030
     34 C         139.6781  140.6786  166.6663 C.ar    1  UNL1        0.0978
     35 N         140.0053  139.8535  167.8755 N.ar    1  UNL1       -0.2105
     36 C         137.6646  140.3460  163.2626 C.3     1  UNL1        0.1649
     37 O         136.8445  141.2499  162.3906 O.3     1  UNL1       -0.3772
     38 H         136.1515  141.6710  162.9228 H       1  UNL1        0.2109
     39 C         142.4646  138.8424  170.2416 C.3     1  UNL1        0.2542
     40 O         141.1757  139.6072  170.1819 O.3     1  UNL1       -0.4561
@<TRIPOS>BOND
     1    39    40    1
     2    40    26    1
     3    26    27   ar
     4    27    28   ar
     5    28    29   ar
     6    29    30   ar
     7    30    31   ar
     8    31    32   ar
     9    32    36    1
    10    36    37    1
    11    32    33   ar
    12    33    25    1
    13    25    24    1
    14    24     1    1
    15     1     2    1
    16     2     3    1
    17     3     4    1
    18     4     9    1
    19     9    11    1
    20    11    12    1
    21    12    13   ar
    22    13    14   ar
    23    14    15   ar
    24    15    16   ar
    25    16    17   ar
    26    16    18    1
    27    18    19   am
    28    19    20    2
    29    19    21    1
    30    21    22    1
    31     4     5    1
    32     5     6    1
    33     4     7    1
    34     7     8    1
    35    33    34   ar
    36    34    35   ar
    37    35    26   ar
    38    34    29   ar
    39     6     1    1
    40     8     1    1
    41    17    12   ar
    42    22    15    1
    43    37    38    1
    44     9    10    1
    45    18    23    1
@<TRIPOS>MOLECULE
*****
 40 45 0 0 0
SMALL
GASTEIGER

@<TRIPOS>ATOM
      1 C         144.9406  141.4487  163.6426 C.3     1  UNL1        0.0932
      2 C         144.6860  141.4901  162.1649 C.3     1  UNL1        0.0286
      3 C         144.3096  140.2360  161.4333 C.3     1  UNL1        0.0193
      4 C         144.1880  138.9402  162.1792 C.3     1  UNL1        0.0700
      5 C         144.4427  138.8988  163.6569 C.3     1  UNL1        0.0193
      6 C         144.8190  140.1530  164.3885 C.3     1  UNL1        0.0286
      7 C         144.3968  139.6014  162.6233 C.3     1  UNL1        0.1562
      8 O         144.7370  140.7355  163.2849 O.3     1  UNL1       -0.3572
      9 N         143.8117  137.6861  161.4475 N.3     1  UNL1       -0.2926
     10 H         143.9817  136.9098  162.0870 H       1  UNL1        0.1236
     11 C         142.4180  137.5151  160.9198 C.3     1  UNL1        0.1152
     12 C         141.2669  138.1828  161.6118 C.ar    1  UNL1        0.0765
     13 C         140.5933  137.5069  162.7693 C.ar    1  UNL1        0.0193
     14 C         139.4421  138.1746  163.4613 C.ar    1  UNL1        0.0411
     15 C         138.9644  139.5182  162.9959 C.ar    1  UNL1        0.1708
     16 C         139.6379  140.1941  161.8385 C.ar    1  UNL1        0.1682
     17 N         140.7891  139.5264  161.1464 N.ar    1  UNL1       -0.2304
     18 N         139.1602  141.5377  161.3731 N.am    1  UNL1       -0.2639
     19 C         138.0090  142.2054  162.0651 C.2     1  UNL1        0.2718
     20 O         137.5313  143.5490  161.5997 O.2     1  UNL1       -0.2707
     21 C         137.3355  141.5295  163.2226 C.3     1  UNL1        0.2898
     22 O         137.8132  140.1859  163.6880 O.3     1  UNL1       -0.4628
     23 H         139.6022  141.9813  160.6135 H       1  UNL1        0.1565
     24 C         145.3170  142.7028  164.3743 C.3     1  UNL1        0.0319
     25 C         144.3896  143.2775  165.4037 C.3     1  UNL1        0.0302
     26 C         142.1071  140.2643  167.8452 C.ar    1  UNL1        0.2250
     27 C         140.6227  140.1310  167.6752 C.ar    1  UNL1        0.0593
     28 C         139.8992  141.0021  166.6915 C.ar    1  UNL1        0.0254
     29 C         140.6600  142.0065  165.8777 C.ar    1  UNL1        0.0988
     30 N         139.9365  142.8775  164.8940 N.ar    1  UNL1       -0.2426
     31 C         140.6973  143.8819  164.0802 C.ar    1  UNL1        0.0967
     32 C         142.1817  144.0153  164.2501 C.ar    1  UNL1        0.0236
     33 C         142.9052  143.1442  165.2338 C.ar    1  UNL1       -0.0030
     34 C         142.1443  142.1398  166.0476 C.ar    1  UNL1        0.0978
     35 N         142.8679  141.2687  167.0314 N.ar    1  UNL1       -0.2105
     36 C         142.9425  145.0197  163.4363 C.3     1  UNL1        0.1649
     37 O         142.7628  145.0699  161.9479 O.3     1  UNL1       -0.3772
     38 H         143.1019  144.2511  161.5535 H       1  UNL1        0.2109
     39 C         142.7590  139.6987  170.2957 C.3     1  UNL1        0.2542
     40 O         142.8306  139.3932  168.8289 O.3     1  UNL1       -0.4561
@<TRIPOS>BOND
     1    39    40    1
     2    40    26    1
     3    26    27   ar
     4    27    28   ar
     5    28    29   ar
     6    29    30   ar
     7    30    31   ar
     8    31    32   ar
     9    32    36    1
    10    36    37    1
    11    32    33   ar
    12    33    25    1
    13    25    24    1
    14    24     1    1
    15     1     2    1
    16     2     3    1
    17     3     4    1
    18     4     9    1
    19     9    11    1
    20    11    12    1
    21    12    13   ar
    22    13    14   ar
    23    14    15   ar
    24    15    16   ar
    25    16    17   ar
    26    16    18    1
    27    18    19   am
    28    19    20    2
    29    19    21    1
    30    21    22    1
    31     4     5    1
    32     5     6    1
    33     4     7    1
    34     7     8    1
    35    33    34   ar
    36    34    35   ar
    37    35    26   ar
    38    34    29   ar
    39     6     1    1
    40     8     1    1
    41    17    12   ar
    42    22    15    1
    43    37    38    1
    44     9    10    1
    45    18    23    1
@<TRIPOS>MOLECULE
*****
 40 45 0 0 0
SMALL
GASTEIGER

@<TRIPOS>ATOM
      1 C         142.6565  138.3799  164.0677 C.3     1  UNL1        0.0932
      2 C         142.3564  138.2851  162.6010 C.3     1  UNL1        0.0286
      3 C         140.9753  137.9250  162.1398 C.3     1  UNL1        0.0193
      4 C         139.8942  137.6596  163.1452 C.3     1  UNL1        0.0700
      5 C         140.1942  137.7544  164.6118 C.3     1  UNL1        0.0193
      6 C         141.5754  138.1146  165.0730 C.3     1  UNL1        0.0286
      7 C         140.6357  137.8536  163.4459 C.3     1  UNL1        0.1562
      8 O         141.8846  138.1793  163.8630 O.3     1  UNL1       -0.3572
      9 N         138.5130  137.2995  162.6839 N.3     1  UNL1       -0.2926
     10 H         137.9170  137.2989  163.5117 H       1  UNL1        0.1236
     11 C         137.8226  138.1432  161.6537 C.3     1  UNL1        0.1152
     12 C         137.9862  139.6341  161.6730 C.ar    1  UNL1        0.0765
     13 C         138.3772  140.3620  160.4210 C.ar    1  UNL1        0.0193
     14 C         138.5409  141.8529  160.4403 C.ar    1  UNL1        0.0411
     15 C         138.3136  142.6160  161.7116 C.ar    1  UNL1        0.1708
     16 C         137.9226  141.8882  162.9635 C.ar    1  UNL1        0.1682
     17 N         137.7589  140.3972  162.9442 N.ar    1  UNL1       -0.2304
     18 N         137.6952  142.6513  164.2347 N.am    1  UNL1       -0.2639
     19 C         137.8589  144.1421  164.2540 C.2     1  UNL1        0.2718
     20 O         137.6316  144.9052  165.5252 O.2     1  UNL1       -0.2707
     21 C         138.2499  144.8700  163.0020 C.3     1  UNL1        0.2898
     22 O         138.4772  144.1069  161.7308 O.3     1  UNL1       -0.4628
     23 H         137.4386  142.1736  165.0564 H       1  UNL1        0.1565
     24 C         144.0376  138.7400  164.5289 C.3     1  UNL1        0.0319
     25 C         144.4087  140.1790  164.7332 C.3     1  UNL1        0.0302
     26 C         141.5583  141.2572  168.0442 C.ar    1  UNL1        0.2250
     27 C         140.5349  142.3331  167.8321 C.ar    1  UNL1        0.0593
     28 C         140.4617  143.0496  166.5163 C.ar    1  UNL1        0.0254
     29 C         141.4118  142.6902  165.4126 C.ar    1  UNL1        0.0988
     30 N         141.3385  143.4067  164.0969 N.ar    1  UNL1       -0.2426
     31 C         142.2886  143.0474  162.9932 C.ar    1  UNL1        0.0967
     32 C         143.3120  141.9714  163.2053 C.ar    1  UNL1        0.0236
     33 C         143.3853  141.2549  164.5211 C.ar    1  UNL1       -0.0030
     34 C         142.4352  141.6143  165.6248 C.ar    1  UNL1        0.0978
     35 N         142.5085  140.8978  166.9405 N.ar    1  UNL1       -0.2105
     36 C         144.2621  141.6120  162.1017 C.3     1  UNL1        0.1649
     37 O         145.6783  142.1050  162.1409 O.3     1  UNL1       -0.3772
     38 H         145.6868  143.0711  162.0542 H       1  UNL1        0.2109
     39 C         142.4968  139.3239  169.5042 C.3     1  UNL1        0.2542
     40 O         141.6316  140.5407  169.3599 O.3     1  UNL1       -0.4561
@<TRIPOS>BOND
     1    39    40    1
     2    40    26    1
     3    26    27   ar
     4    27    28   ar
     5    28    29   ar
     6    29    30   ar
     7    30    31   ar
     8    31    32   ar
     9    32    36    1
    10    36    37    1
    11    32    33   ar
    12    33    25    1
    13    25    24    1
    14    24     1    1
    15     1     2    1
    16     2     3    1
    17     3     4    1
    18     4     9    1
    19     9    11    1
    20    11    12    1
    21    12    13   ar
    22    13    14   ar
    23    14    15   ar
    24    15    16   ar
    25    16    17   ar
    26    16    18    1
    27    18    19   am
    28    19    20    2
    29    19    21    1
    30    21    22    1
    31     4     5    1
    32     5     6    1
    33     4     7    1
    34     7     8    1
    35    33    34   ar
    36    34    35   ar
    37    35    26   ar
    38    34    29   ar
    39     6     1    1
    40     8     1    1
    41    17    12   ar
    42    22    15    1
    43    37    38    1
    44     9    10    1
    45    18    23    1
@<TRIPOS>MOLECULE
*****
 40 45 0 0 0
SMALL
GASTEIGER

@<TRIPOS>ATOM
      1 C         141.5621  137.7934  163.6807 C.3     1  UNL1        0.0932
      2 C         142.2763  138.4128  164.8453 C.3     1  UNL1        0.0286
      3 C         143.5205  139.2195  164.6193 C.3     1  UNL1        0.0193
      4 C         144.0505  139.4069  163.2286 C.3     1  UNL1        0.0700
      5 C         143.3363  138.7876  162.0640 C.3     1  UNL1        0.0193
      6 C         142.0921  137.9808  162.2901 C.3     1  UNL1        0.0286
      7 C         143.3653  138.9565  163.3028 C.3     1  UNL1        0.1562
      8 O         142.2402  138.2270  163.5072 O.3     1  UNL1       -0.3572
      9 N         145.2948  140.2136  163.0026 N.3     1  UNL1       -0.2926
     10 H         145.5713  140.0627  162.0324 H       1  UNL1        0.1236
     11 C         145.2768  141.6973  163.2220 C.3     1  UNL1        0.1152
     12 C         144.0521  142.4917  162.8773 C.ar    1  UNL1        0.0765
     13 C         143.8203  142.9373  161.4638 C.ar    1  UNL1        0.0193
     14 C         142.5956  143.7317  161.1191 C.ar    1  UNL1        0.0411
     15 C         141.6025  144.0805  162.1878 C.ar    1  UNL1        0.1708
     16 C         141.8342  143.6350  163.6012 C.ar    1  UNL1        0.1682
     17 N         143.0590  142.8405  163.9460 N.ar    1  UNL1       -0.2304
     18 N         140.8411  143.9838  164.6699 N.am    1  UNL1       -0.2639
     19 C         139.6163  144.7782  164.3252 C.2     1  UNL1        0.2718
     20 O         138.6232  145.1270  165.3938 O.2     1  UNL1       -0.2707
     21 C         139.3846  145.2238  162.9117 C.3     1  UNL1        0.2898
     22 O         140.3777  144.8750  161.8430 O.3     1  UNL1       -0.4628
     23 H         140.9931  143.6914  165.5976 H       1  UNL1        0.1565
     24 C         140.3178  136.9867  163.9067 C.3     1  UNL1        0.0319
     25 C         138.9836  137.5345  163.4945 C.3     1  UNL1        0.0302
     26 C         138.7295  139.9459  159.7036 C.ar    1  UNL1        0.2250
     27 C         138.4719  141.4221  159.7697 C.ar    1  UNL1        0.0593
     28 C         138.2991  142.0945  161.0993 C.ar    1  UNL1        0.0254
     29 C         138.3838  141.2908  162.3629 C.ar    1  UNL1        0.0988
     30 N         138.2109  141.9632  163.6925 N.ar    1  UNL1       -0.2426
     31 C         138.2956  141.1595  164.9561 C.ar    1  UNL1        0.0967
     32 C         138.5532  139.6832  164.8902 C.ar    1  UNL1        0.0236
     33 C         138.7260  139.0107  163.5605 C.ar    1  UNL1       -0.0030
     34 C         138.6413  139.8146  162.2969 C.ar    1  UNL1        0.0978
     35 N         138.8142  139.1421  160.9672 N.ar    1  UNL1       -0.2105
     36 C         138.6379  138.8794  166.1538 C.3     1  UNL1        0.1649
     37 O         137.3860  138.5088  166.8922 O.3     1  UNL1       -0.3772
     38 H         136.9651  139.3113  167.2383 H       1  UNL1        0.2109
     39 C         140.0032  138.2739  158.1765 C.3     1  UNL1        0.2542
     40 O         138.9024  139.2734  158.3740 O.3     1  UNL1       -0.4561
@<TRIPOS>BOND
     1    39    40    1
     2    40    26    1
     3    26    27   ar
     4    27    28   ar
     5    28    29   ar
     6    29    30   ar
     7    30    31   ar
     8    31    32   ar
     9    32    36    1
    10    36    37    1
    11    32    33   ar
    12    33    25    1
    13    25    24    1
    14    24     1    1
    15     1     2    1
    16     2     3    1
    17     3     4    1
    18     4     9    1
    19     9    11    1
    20    11    12    1
    21    12    13   ar
    22    13    14   ar
    23    14    15   ar
    24    15    16   ar
    25    16    17   ar
    26    16    18    1
    27    18    19   am
    28    19    20    2
    29    19    21    1
    30    21    22    1
    31     4     5    1
    32     5     6    1
    33     4     7    1
    34     7     8    1
    35    33    34   ar
    36    34    35   ar
    37    35    26   ar
    38    34    29   ar
    39     6     1    1
    40     8     1    1
    41    17    12   ar
    42    22    15    1
    43    37    38    1
    44     9    10    1
    45    18    23    1
@<TRIPOS>MOLECULE
*****
 40 45 0 0 0
SMALL
GASTEIGER

@<TRIPOS>ATOM
      1 C         141.5935  145.0472  162.1989 C.3     1  UNL1        0.0932
      2 C         142.0490  144.1626  161.0763 C.3     1  UNL1        0.0286
      3 C         143.2922  143.3374  161.2289 C.3     1  UNL1        0.0193
      4 C         144.0801  143.3966  162.5040 C.3     1  UNL1        0.0700
      5 C         143.6246  144.2812  163.6265 C.3     1  UNL1        0.0193
      6 C         142.3813  145.1065  163.4739 C.3     1  UNL1        0.0286
      7 C         143.4053  143.8671  162.4670 C.3     1  UNL1        0.1562
      8 O         142.2812  144.6133  162.3290 O.3     1  UNL1       -0.3572
      9 N         145.3233  142.5714  162.6566 N.3     1  UNL1       -0.2926
     10 H         145.9892  143.1367  163.1832 H       1  UNL1        0.1236
     11 C         145.2579  141.2351  163.3349 C.3     1  UNL1        0.1152
     12 C         144.1196  140.3021  163.0457 C.ar    1  UNL1        0.0765
     13 C         144.0570  139.5797  161.7325 C.ar    1  UNL1        0.0193
     14 C         142.9187  138.6466  161.4434 C.ar    1  UNL1        0.0411
     15 C         141.8430  138.4359  162.4673 C.ar    1  UNL1        0.1708
     16 C         141.9056  139.1583  163.7804 C.ar    1  UNL1        0.1682
     17 N         143.0439  140.0914  164.0696 N.ar    1  UNL1       -0.2304
     18 N         140.8298  138.9475  164.8043 N.am    1  UNL1       -0.2639
     19 C         139.6916  138.0145  164.5151 C.2     1  UNL1        0.2718
     20 O         138.6158  137.8038  165.5390 O.2     1  UNL1       -0.2707
     21 C         139.6290  137.2921  163.2019 C.3     1  UNL1        0.2898
     22 O         140.7047  137.5028  162.1780 O.3     1  UNL1       -0.4628
     23 H         140.8709  139.4216  165.6661 H       1  UNL1        0.1565
     24 C         140.3503  145.8724  162.0463 C.3     1  UNL1        0.0319
     25 C         139.0503  145.3816  162.6113 C.3     1  UNL1        0.0302
     26 C         138.3655  142.0431  159.6727 C.ar    1  UNL1        0.2250
     27 C         138.2451  140.6292  160.1587 C.ar    1  UNL1        0.0593
     28 C         138.3529  140.3280  161.6242 C.ar    1  UNL1        0.0254
     29 C         138.5812  141.4408  162.6037 C.ar    1  UNL1        0.0988
     30 N         138.6891  141.1397  164.0692 N.ar    1  UNL1       -0.2426
     31 C         138.9173  142.2525  165.0487 C.ar    1  UNL1        0.0967
     32 C         139.0377  143.6666  164.5628 C.ar    1  UNL1        0.0236
     33 C         138.9299  143.9677  163.0973 C.ar    1  UNL1       -0.0030
     34 C         138.7016  142.8548  162.1177 C.ar    1  UNL1        0.0978
     35 N         138.5937  143.1559  160.6522 N.ar    1  UNL1       -0.2105
     36 C         139.2660  144.7794  165.5423 C.3     1  UNL1        0.1649
     37 O         138.0971  145.4536  166.1972 O.3     1  UNL1       -0.3772
     38 H         137.5818  145.9300  165.5275 H       1  UNL1        0.2109
     39 C         139.1672  143.3595  157.5812 C.3     1  UNL1        0.2542
     40 O         138.2576  142.3442  158.2072 O.3     1  UNL1       -0.4561
@<TRIPOS>BOND
     1    39    40    1
     2    40    26    1
     3    26    27   ar
     4    27    28   ar
     5    28    29   ar
     6    29    30   ar
     7    30    31   ar
     8    31    32   ar
     9    32    36    1
    10    36    37    1
    11    32    33   ar
    12    33    25    1
    13    25    24    1
    14    24     1    1
    15     1     2    1
    16     2     3    1
    17     3     4    1
    18     4     9    1
    19     9    11    1
    20    11    12    1
    21    12    13   ar
    22    13    14   ar
    23    14    15   ar
    24    15    16   ar
    25    16    17   ar
    26    16    18    1
    27    18    19   am
    28    19    20    2
    29    19    21    1
    30    21    22    1
    31     4     5    1
    32     5     6    1
    33     4     7    1
    34     7     8    1
    35    33    34   ar
    36    34    35   ar
    37    35    26   ar
    38    34    29   ar
    39     6     1    1
    40     8     1    1
    41    17    12   ar
    42    22    15    1
    43    37    38    1
    44     9    10    1
    45    18    23    1
@<TRIPOS>MOLECULE
*****
 40 45 0 0 0
SMALL
GASTEIGER

@<TRIPOS>ATOM
      1 C         139.4246  138.1323  164.3905 C.3     1  UNL1        0.0932
      2 C         139.0602  138.2275  162.9386 C.3     1  UNL1        0.0286
      3 C         140.0909  137.9433  161.8865 C.3     1  UNL1        0.0193
      4 C         141.4860  137.5639  162.2863 C.3     1  UNL1        0.0700
      5 C         141.8504  137.4687  163.7383 C.3     1  UNL1        0.0193
      6 C         140.8196  137.7529  164.7904 C.3     1  UNL1        0.0286
      7 C         140.9555  137.7104  162.8987 C.3     1  UNL1        0.1562
      8 O         140.0235  137.9674  163.8501 O.3     1  UNL1       -0.3572
      9 N         142.5167  137.2797  161.2343 N.3     1  UNL1       -0.2926
     10 H         142.0652  137.4290  160.3319 H       1  UNL1        0.1236
     11 C         143.7989  138.0577  161.2109 C.3     1  UNL1        0.1152
     12 C         143.7759  139.5470  161.3880 C.ar    1  UNL1        0.0765
     13 C         143.4166  140.4341  160.2329 C.ar    1  UNL1        0.0193
     14 C         143.3936  141.9234  160.4100 C.ar    1  UNL1        0.0411
     15 C         143.7298  142.5257  161.7420 C.ar    1  UNL1        0.1708
     16 C         144.0890  141.6387  162.8970 C.ar    1  UNL1        0.1682
     17 N         144.1121  140.1493  162.7200 N.ar    1  UNL1       -0.2304
     18 N         144.4252  142.2409  164.2290 N.am    1  UNL1       -0.2639
     19 C         144.4022  143.7302  164.4060 C.2     1  UNL1        0.2718
     20 O         144.7383  144.3325  165.7380 O.2     1  UNL1       -0.2707
     21 C         144.0429  144.6174  163.2510 C.3     1  UNL1        0.2898
     22 O         143.7067  144.0151  161.9190 O.3     1  UNL1       -0.4628
     23 H         144.6610  141.6587  164.9870 H       1  UNL1        0.1565
     24 C         138.3939  138.4165  165.4426 C.3     1  UNL1        0.0319
     25 C         138.0470  139.8341  165.7891 C.3     1  UNL1        0.0302
     26 C         138.6656  142.7848  162.4484 C.ar    1  UNL1        0.2250
     27 C         139.7480  143.8182  162.5513 C.ar    1  UNL1        0.0593
     28 C         140.6241  143.8680  163.7678 C.ar    1  UNL1        0.0254
     29 C         140.4179  142.8844  164.8813 C.ar    1  UNL1        0.0988
     30 N         141.2941  142.9342  166.0978 N.ar    1  UNL1       -0.2426
     31 C         141.0879  141.9507  167.2114 C.ar    1  UNL1        0.0967
     32 C         140.0055  140.9173  167.1085 C.ar    1  UNL1        0.0236
     33 C         139.1293  140.8675  165.8920 C.ar    1  UNL1       -0.0030
     34 C         139.3356  141.8511  164.7784 C.ar    1  UNL1        0.0978
     35 N         138.4594  141.8013  163.5619 N.ar    1  UNL1       -0.2105
     36 C         139.7993  139.9337  168.2221 C.3     1  UNL1        0.1649
     37 O         139.4073  140.4173  169.5868 O.3     1  UNL1       -0.3772
     38 H         140.1313  140.9408  169.9646 H       1  UNL1        0.2109
     39 C         138.3797  142.3932  159.8959 C.3     1  UNL1        0.2542
     40 O         137.7894  142.7350  161.2319 O.3     1  UNL1       -0.4561
@<TRIPOS>BOND
     1    39    40    1
     2    40    26    1
     3    26    27   ar
     4    27    28   ar
     5    28    29   ar
     6    29    30   ar
     7    30    31   ar
     8    31    32   ar
     9    32    36    1
    10    36    37    1
    11    32    33   ar
    12    33    25    1
    13    25    24    1
    14    24     1    1
    15     1     2    1
    16     2     3    1
    17     3     4    1
    18     4     9    1
    19     9    11    1
    20    11    12    1
    21    12    13   ar
    22    13    14   ar
    23    14    15   ar
    24    15    16   ar
    25    16    17   ar
    26    16    18    1
    27    18    19   am
    28    19    20    2
    29    19    21    1
    30    21    22    1
    31     4     5    1
    32     5     6    1
    33     4     7    1
    34     7     8    1
    35    33    34   ar
    36    34    35   ar
    37    35    26   ar
    38    34    29   ar
    39     6     1    1
    40     8     1    1
    41    17    12   ar
    42    22    15    1
    43    37    38    1
    44     9    10    1
    45    18    23    1
@<TRIPOS>MOLECULE
*****
 40 45 0 0 0
SMALL
GASTEIGER

@<TRIPOS>ATOM
      1 C         138.4321  139.6658  164.0036 C.3     1  UNL1        0.0932
      2 C         138.2735  139.9448  162.5383 C.3     1  UNL1        0.0286
      3 C         137.9539  141.3333  162.0696 C.3     1  UNL1        0.0193
      4 C         137.7928  142.4429  163.0661 C.3     1  UNL1        0.0700
      5 C         137.9515  142.1639  164.5314 C.3     1  UNL1        0.0193
      6 C         138.2711  140.7752  165.0001 C.3     1  UNL1        0.0286
      7 C         137.9679  141.6983  163.3707 C.3     1  UNL1        0.1562
      8 O         138.2569  140.4427  163.7946 O.3     1  UNL1       -0.3572
      9 N         137.4732  143.8315  162.5974 N.3     1  UNL1       -0.2926
     10 H         136.6612  144.1426  163.1305 H       1  UNL1        0.1236
     11 C         138.5040  144.9157  162.7063 C.3     1  UNL1        0.1152
     12 C         139.9616  144.5784  162.5989 C.ar    1  UNL1        0.0765
     13 C         140.9074  144.9822  163.6909 C.ar    1  UNL1        0.0193
     14 C         142.3650  144.6448  163.5835 C.ar    1  UNL1        0.0411
     15 C         142.8769  143.9037  162.3840 C.ar    1  UNL1        0.1708
     16 C         141.9312  143.4999  161.2920 C.ar    1  UNL1        0.1682
     17 N         140.4735  143.8373  161.3994 N.ar    1  UNL1       -0.2304
     18 N         142.4430  142.7588  160.0925 N.am    1  UNL1       -0.2639
     19 C         143.9006  142.4215  159.9850 C.2     1  UNL1        0.2718
     20 O         144.4125  141.6804  158.7856 O.2     1  UNL1       -0.2707
     21 C         144.8464  142.8253  161.0771 C.3     1  UNL1        0.2898
     22 O         144.3345  143.5664  162.2766 O.3     1  UNL1       -0.4628
     23 H         141.8223  142.4938  159.3758 H       1  UNL1        0.1565
     24 C         138.7517  138.2772  164.4723 C.3     1  UNL1        0.0319
     25 C         140.1753  137.8827  164.7331 C.3     1  UNL1        0.0302
     26 C         141.5827  140.7996  167.8573 C.ar    1  UNL1        0.2250
     27 C         142.6954  141.7555  167.5439 C.ar    1  UNL1        0.0593
     28 C         143.3389  141.7391  166.1890 C.ar    1  UNL1        0.0254
     29 C         142.8697  140.7668  165.1476 C.ar    1  UNL1        0.0988
     30 N         143.5132  140.7505  163.7927 N.ar    1  UNL1       -0.2426
     31 C         143.0441  139.7782  162.7513 C.ar    1  UNL1        0.0967
     32 C         141.9314  138.8222  163.0648 C.ar    1  UNL1        0.0236
     33 C         141.2879  138.8386  164.4196 C.ar    1  UNL1       -0.0030
     34 C         141.7571  139.8109  165.4611 C.ar    1  UNL1        0.0978
     35 N         141.1136  139.8273  166.8159 N.ar    1  UNL1       -0.2105
     36 C         141.4623  137.8500  162.0234 C.3     1  UNL1        0.1649
     37 O         142.4587  137.0221  161.2672 O.3     1  UNL1       -0.3772
     38 H         143.0064  137.6007  160.7140 H       1  UNL1        0.2109
     39 C         141.2267  139.7175  170.1923 C.3     1  UNL1        0.2542
     40 O         140.9393  140.8160  169.2122 O.3     1  UNL1       -0.4561
@<TRIPOS>BOND
     1    39    40    1
     2    40    26    1
     3    26    27   ar
     4    27    28   ar
     5    28    29   ar
     6    29    30   ar
     7    30    31   ar
     8    31    32   ar
     9    32    36    1
    10    36    37    1
    11    32    33   ar
    12    33    25    1
    13    25    24    1
    14    24     1    1
    15     1     2    1
    16     2     3    1
    17     3     4    1
    18     4     9    1
    19     9    11    1
    20    11    12    1
    21    12    13   ar
    22    13    14   ar
    23    14    15   ar
    24    15    16   ar
    25    16    17   ar
    26    16    18    1
    27    18    19   am
    28    19    20    2
    29    19    21    1
    30    21    22    1
    31     4     5    1
    32     5     6    1
    33     4     7    1
    34     7     8    1
    35    33    34   ar
    36    34    35   ar
    37    35    26   ar
    38    34    29   ar
    39     6     1    1
    40     8     1    1
    41    17    12   ar
    42    22    15    1
    43    37    38    1
    44     9    10    1
    45    18    23    1
