@<TRIPOS>MOLECULE
*****
 33 36 0 0 0
SMALL
GASTEIGER

@<TRIPOS>ATOM
      1 C         140.9699  138.9600  157.8891 C.ar    1  UNL1        0.1390
      2 C         141.2223  137.5585  157.4178 C.ar    1  UNL1        0.0733
      3 C         142.5668  137.1824  156.8695 C.ar    1  UNL1        0.1679
      4 N         143.6590  138.2077  156.7925 N.ar    1  UNL1       -0.2047
      5 C         143.4066  139.6091  157.2637 C.ar    1  UNL1        0.2001
      6 N         142.0621  139.9853  157.8120 N.ar    1  UNL1       -0.2088
      7 N         142.8193  135.7808  156.3982 N.ar    1  UNL1       -0.2164
      8 N         143.2512  134.6271  157.2540 N.ar    1  UNL1       -0.1684
      9 C         143.3829  133.4203  156.3731 C.ar    1  UNL1        0.0805
     10 C         143.7931  132.0467  156.8149 C.3     1  UNL1        0.0540
     11 C         143.0325  133.8281  154.9727 C.ar    1  UNL1        0.0312
     12 C         142.6841  135.2870  154.9883 C.ar    1  UNL1        0.0637
     13 C         142.2728  136.1079  153.8021 C.3     1  UNL1        0.0522
     14 C         144.4988  140.6344  157.1867 C.ar    1  UNL1        0.1805
     15 C         144.6561  141.8244  158.0862 C.ar    1  UNL1        0.0434
     16 C         145.8799  142.5752  157.6521 C.ar    1  UNL1        0.0362
     17 C         146.4791  141.8492  156.4842 C.ar    1  UNL1        0.1234
     18 C         147.7148  142.2520  155.7354 C.3     1  UNL1        0.0725
     19 O         145.6255  140.6498  156.1966 O.2     1  UNL1       -0.4546
     20 C         139.3334  139.1552  159.8975 C.2     1  UNL1        0.2435
     21 O         140.3861  138.5980  160.8094 O.2     1  UNL1       -0.2732
     22 N         139.6254  139.3362  158.4374 N.am    1  UNL1       -0.2681
     23 H         138.9345  139.7020  157.8389 H       1  UNL1        0.1563
     24 C         137.9889  139.5315  160.4459 C.3     1  UNL1        0.1588
     25 C         137.7949  142.8607  162.4318 C.3     1  UNL1        0.0716
     26 C         137.5828  141.8574  163.5265 C.3     1  UNL1        0.0345
     27 C         137.6296  140.4881  162.9158 C.3     1  UNL1        0.0740
     28 N         137.8707  140.6452  161.4436 N.3     1  UNL1       -0.2638
     29 C         137.9728  142.1115  161.1445 C.3     1  UNL1        0.0884
     30 N         137.8240  144.3515  162.5956 N.3     1  UNL1       -0.2974
     31 H         137.8125  144.7511  161.6572 H       1  UNL1        0.1232
     32 C         139.0578  144.8750  164.8211 C.3     1  UNL1        0.0185
     33 C         138.9578  145.0033  163.3300 C.3     1  UNL1        0.0686
@<TRIPOS>BOND
     1    32    33    1
     2    33    30    1
     3    25    30    1
     4    25    26    1
     5    26    27    1
     6    27    28    1
     7    28    24    1
     8    24    20    1
     9    20    21    2
    10    20    22   am
    11    22     1    1
    12     1     2   ar
    13     2     3   ar
    14     3     7    1
    15     7     8   ar
    16     8     9   ar
    17     9    10    1
    18     9    11   ar
    19    11    12   ar
    20    12    13    1
    21     3     4   ar
    22     4     5   ar
    23     5    14    1
    24    14    15   ar
    25    15    16   ar
    26    16    17   ar
    27    17    18    1
    28    17    19   ar
    29     5     6   ar
    30    28    29    1
    31    29    25    1
    32     6     1   ar
    33    12     7   ar
    34    19    14   ar
    35    30    31    1
    36    22    23    1
@<TRIPOS>MOLECULE
*****
 33 36 0 0 0
SMALL
GASTEIGER

@<TRIPOS>ATOM
      1 C         140.9550  138.7230  157.3848 C.ar    1  UNL1        0.1390
      2 C         142.0702  139.7103  157.2073 C.ar    1  UNL1        0.0733
      3 C         143.4171  139.2442  156.7399 C.ar    1  UNL1        0.1679
      4 N         143.6488  137.7908  156.4499 N.ar    1  UNL1       -0.2047
      5 C         142.5335  136.8035  156.6274 C.ar    1  UNL1        0.2001
      6 N         141.1866  137.2696  157.0949 N.ar    1  UNL1       -0.2088
      7 N         144.5324  140.2314  156.5623 N.ar    1  UNL1       -0.2164
      8 N         145.5023  140.2698  155.4187 N.ar    1  UNL1       -0.1684
      9 C         146.4429  141.4157  155.6468 C.ar    1  UNL1        0.0805
     10 C         147.5735  141.8207  154.7481 C.3     1  UNL1        0.0540
     11 C         146.0543  142.0856  156.9315 C.ar    1  UNL1        0.0312
     12 C         144.8736  141.3537  157.4973 C.ar    1  UNL1        0.0637
     13 C         144.1595  141.6857  158.7739 C.3     1  UNL1        0.0522
     14 C         142.7652  135.3502  156.3374 C.ar    1  UNL1        0.1805
     15 C         141.8089  134.4262  155.6433 C.ar    1  UNL1        0.0434
     16 C         142.4465  133.0706  155.5675 C.ar    1  UNL1        0.0362
     17 C         143.7969  133.1567  156.2149 C.ar    1  UNL1        0.1234
     18 C         144.7781  132.0316  156.3608 C.3     1  UNL1        0.0725
     19 O         143.9938  134.5656  156.6907 O.2     1  UNL1       -0.4546
     20 C         139.3936  139.5351  159.2960 C.2     1  UNL1        0.2435
     21 O         140.5261  139.4151  160.2722 O.2     1  UNL1       -0.2732
     22 N         139.6080  139.1891  157.8523 N.am    1  UNL1       -0.2681
     23 H         138.8647  139.2678  157.2116 H       1  UNL1        0.1563
     24 C         138.0466  140.0012  159.7635 C.3     1  UNL1        0.1588
     25 C         137.9339  142.9573  162.2763 C.3     1  UNL1        0.0716
     26 C         137.6200  141.7994  163.1767 C.3     1  UNL1        0.0345
     27 C         137.6241  140.5511  162.3450 C.3     1  UNL1        0.0740
     28 N         137.9404  140.9375  160.9305 N.3     1  UNL1       -0.2638
     29 C         138.1318  142.4247  160.8881 C.3     1  UNL1        0.0884
     30 N         138.0324  144.3954  162.6912 N.3     1  UNL1       -0.2974
     31 H         138.1817  144.9378  161.8404 H       1  UNL1        0.1232
     32 C         138.7856  144.8402  165.1375 C.3     1  UNL1        0.0185
     33 C         139.0870  144.8235  163.6682 C.3     1  UNL1        0.0686
@<TRIPOS>BOND
     1    32    33    1
     2    33    30    1
     3    25    30    1
     4    25    26    1
     5    26    27    1
     6    27    28    1
     7    28    24    1
     8    24    20    1
     9    20    21    2
    10    20    22   am
    11    22     1    1
    12     1     2   ar
    13     2     3   ar
    14     3     7    1
    15     7     8   ar
    16     8     9   ar
    17     9    10    1
    18     9    11   ar
    19    11    12   ar
    20    12    13    1
    21     3     4   ar
    22     4     5   ar
    23     5    14    1
    24    14    15   ar
    25    15    16   ar
    26    16    17   ar
    27    17    18    1
    28    17    19   ar
    29     5     6   ar
    30    28    29    1
    31    29    25    1
    32     6     1   ar
    33    12     7   ar
    34    19    14   ar
    35    30    31    1
    36    22    23    1
@<TRIPOS>MOLECULE
*****
 33 36 0 0 0
SMALL
GASTEIGER

@<TRIPOS>ATOM
      1 C         140.1181  138.5913  157.5315 C.ar    1  UNL1        0.1390
      2 C         139.4987  139.7156  156.7555 C.ar    1  UNL1        0.0733
      3 C         138.6327  140.7214  157.4543 C.ar    1  UNL1        0.1679
      4 N         138.3861  140.6029  158.9292 N.ar    1  UNL1       -0.2047
      5 C         139.0055  139.4786  159.7052 C.ar    1  UNL1        0.2001
      6 N         139.8715  138.4728  159.0064 N.ar    1  UNL1       -0.2088
      7 N         138.0133  141.8458  156.6783 N.ar    1  UNL1       -0.2164
      8 N         138.6622  143.1603  156.3606 N.ar    1  UNL1       -0.1684
      9 C         137.6862  143.9799  155.5697 C.ar    1  UNL1        0.0805
     10 C         137.9210  145.3644  155.0425 C.3     1  UNL1        0.0540
     11 C         136.4339  143.1719  155.3986 C.ar    1  UNL1        0.0312
     12 C         136.6361  141.8530  156.0837 C.ar    1  UNL1        0.0637
     13 C         135.6367  140.7371  156.1608 C.3     1  UNL1        0.0522
     14 C         138.7589  139.3601  161.1800 C.ar    1  UNL1        0.1805
     15 C         138.0035  140.3391  162.0291 C.ar    1  UNL1        0.0434
     16 C         138.0022  139.8259  163.4386 C.ar    1  UNL1        0.0362
     17 C         138.7568  138.5297  163.4606 C.ar    1  UNL1        0.1234
     18 C         139.0009  137.6720  164.6667 C.3     1  UNL1        0.0725
     19 O         139.2245  138.2419  162.0648 O.2     1  UNL1       -0.4546
     20 C         142.4731  137.6268  157.0085 C.2     1  UNL1        0.2435
     21 O         143.0963  138.6741  157.8830 O.2     1  UNL1       -0.2732
     22 N         140.9841  137.5854  156.8327 N.am    1  UNL1       -0.2681
     23 H         140.5751  136.8980  156.2587 H       1  UNL1        0.1563
     24 C         143.3391  136.6209  156.3097 C.3     1  UNL1        0.1588
     25 C         142.8209  132.8202  156.9028 C.3     1  UNL1        0.0716
     26 C         141.9130  133.0575  155.7325 C.3     1  UNL1        0.0345
     27 C         141.9967  134.5101  155.3679 C.3     1  UNL1        0.0740
     28 N         142.9562  135.1706  156.3128 N.3     1  UNL1       -0.2638
     29 C         143.4656  134.1263  157.2614 C.3     1  UNL1        0.0884
     30 N         143.0448  131.5075  157.5932 N.3     1  UNL1       -0.2974
     31 H         143.0069  131.6918  158.5957 H       1  UNL1        0.1232
     32 C         144.8702  130.6498  155.9556 C.3     1  UNL1        0.0185
     33 C         144.3050  130.7336  157.3425 C.3     1  UNL1        0.0686
@<TRIPOS>BOND
     1    32    33    1
     2    33    30    1
     3    25    30    1
     4    25    26    1
     5    26    27    1
     6    27    28    1
     7    28    24    1
     8    24    20    1
     9    20    21    2
    10    20    22   am
    11    22     1    1
    12     1     2   ar
    13     2     3   ar
    14     3     7    1
    15     7     8   ar
    16     8     9   ar
    17     9    10    1
    18     9    11   ar
    19    11    12   ar
    20    12    13    1
    21     3     4   ar
    22     4     5   ar
    23     5    14    1
    24    14    15   ar
    25    15    16   ar
    26    16    17   ar
    27    17    18    1
    28    17    19   ar
    29     5     6   ar
    30    28    29    1
    31    29    25    1
    32     6     1   ar
    33    12     7   ar
    34    19    14   ar
    35    30    31    1
    36    22    23    1
@<TRIPOS>MOLECULE
*****
 33 36 0 0 0
SMALL
GASTEIGER

@<TRIPOS>ATOM
      1 C         142.8426  139.3075  159.0801 C.ar    1  UNL1        0.1390
      2 C         142.7963  138.7394  160.4675 C.ar    1  UNL1        0.0733
      3 C         142.3296  139.5905  161.6111 C.ar    1  UNL1        0.1679
      4 N         141.9092  141.0096  161.3673 N.ar    1  UNL1       -0.2047
      5 C         141.9555  141.5776  159.9798 C.ar    1  UNL1        0.2001
      6 N         142.4222  140.7266  158.8362 N.ar    1  UNL1       -0.2088
      7 N         142.2833  139.0224  162.9987 N.ar    1  UNL1       -0.2164
      8 N         143.3658  139.1289  164.0316 N.ar    1  UNL1       -0.1684
      9 C         142.8979  138.4205  165.2682 C.ar    1  UNL1        0.0805
     10 C         143.6667  138.2808  166.5486 C.3     1  UNL1        0.0540
     11 C         141.5261  137.8761  164.9996 C.ar    1  UNL1        0.0312
     12 C         141.1464  138.2482  163.5970 C.ar    1  UNL1        0.0637
     13 C         139.8561  137.9061  162.9127 C.3     1  UNL1        0.0522
     14 C         141.5351  142.9967  159.7360 C.ar    1  UNL1        0.1805
     15 C         141.3565  144.0557  160.7831 C.ar    1  UNL1        0.0434
     16 C         140.9305  145.3195  160.0965 C.ar    1  UNL1        0.0362
     17 C         140.8459  145.0415  158.6249 C.ar    1  UNL1        0.1234
     18 C         140.4560  146.0262  157.5626 C.3     1  UNL1        0.0725
     19 O         141.2195  143.6060  158.4021 O.2     1  UNL1       -0.4546
     20 C         142.3202  137.6465  157.1517 C.2     1  UNL1        0.2435
     21 O         140.8644  137.6876  157.5108 O.2     1  UNL1       -0.2732
     22 N         143.3093  138.4565  157.9363 N.am    1  UNL1       -0.2681
     23 H         144.2648  138.4295  157.7007 H       1  UNL1        0.1563
     24 C         142.7869  136.7955  156.0080 C.3     1  UNL1        0.1588
     25 C         142.6745  132.9797  156.7098 C.3     1  UNL1        0.0716
     26 C         141.8206  133.0736  155.4800 C.3     1  UNL1        0.0345
     27 C         141.7589  134.5144  155.0675 C.3     1  UNL1        0.0740
     28 N         142.5745  135.3110  156.0423 N.3     1  UNL1       -0.2638
     29 C         143.1404  134.3625  157.0572 C.3     1  UNL1        0.0884
     30 N         143.0045  131.7236  157.4603 N.3     1  UNL1       -0.2974
     31 H         142.9458  131.9498  158.4531 H       1  UNL1        0.1232
     32 C         144.9036  130.9473  155.8664 C.3     1  UNL1        0.0185
     33 C         144.3267  131.0482  157.2473 C.3     1  UNL1        0.0686
@<TRIPOS>BOND
     1    32    33    1
     2    33    30    1
     3    25    30    1
     4    25    26    1
     5    26    27    1
     6    27    28    1
     7    28    24    1
     8    24    20    1
     9    20    21    2
    10    20    22   am
    11    22     1    1
    12     1     2   ar
    13     2     3   ar
    14     3     7    1
    15     7     8   ar
    16     8     9   ar
    17     9    10    1
    18     9    11   ar
    19    11    12   ar
    20    12    13    1
    21     3     4   ar
    22     4     5   ar
    23     5    14    1
    24    14    15   ar
    25    15    16   ar
    26    16    17   ar
    27    17    18    1
    28    17    19   ar
    29     5     6   ar
    30    28    29    1
    31    29    25    1
    32     6     1   ar
    33    12     7   ar
    34    19    14   ar
    35    30    31    1
    36    22    23    1
@<TRIPOS>MOLECULE
*****
 33 36 0 0 0
SMALL
GASTEIGER

@<TRIPOS>ATOM
      1 C         142.5110  137.9759  157.7872 C.ar    1  UNL1        0.1390
      2 C         142.5719  136.5369  157.3684 C.ar    1  UNL1        0.0733
      3 C         143.4594  136.1235  156.2320 C.ar    1  UNL1        0.1679
      4 N         144.2861  137.1491  155.5145 N.ar    1  UNL1       -0.2047
      5 C         144.2251  138.5881  155.9334 C.ar    1  UNL1        0.2001
      6 N         143.3376  139.0015  157.0697 N.ar    1  UNL1       -0.2088
      7 N         143.5204  134.6844  155.8131 N.ar    1  UNL1       -0.2164
      8 N         144.2897  133.5971  156.5030 N.ar    1  UNL1       -0.1684
      9 C         144.0675  132.3208  155.7470 C.ar    1  UNL1        0.0805
     10 C         144.6497  130.9811  156.0882 C.3     1  UNL1        0.0540
     11 C         143.1608  132.6192  154.5898 C.ar    1  UNL1        0.0312
     12 C         142.8228  134.0801  154.6307 C.ar    1  UNL1        0.0637
     13 C         141.9417  134.8086  153.6596 C.3     1  UNL1        0.0522
     14 C         145.0518  139.6138  155.2159 C.ar    1  UNL1        0.1805
     15 C         145.1956  139.7470  153.7288 C.ar    1  UNL1        0.0434
     16 C         146.1124  140.9018  153.4534 C.ar    1  UNL1        0.0362
     17 C         146.5352  141.4823  154.7703 C.ar    1  UNL1        0.1234
     18 C         147.4525  142.6533  154.9639 C.3     1  UNL1        0.0725
     19 O         145.8797  140.6863  155.8596 O.2     1  UNL1       -0.4546
     20 C         140.1394  138.4759  158.7231 C.2     1  UNL1        0.2435
     21 O         139.5429  138.1491  157.3861 O.2     1  UNL1       -0.2732
     22 N         141.6234  138.3893  158.9236 N.am    1  UNL1       -0.2681
     23 H         142.0149  138.6038  159.8011 H       1  UNL1        0.1563
     24 C         139.2518  138.8894  159.8595 C.3     1  UNL1        0.1588
     25 C         138.2138  142.4032  161.1404 C.3     1  UNL1        0.0716
     26 C         139.1606  142.7657  160.0348 C.3     1  UNL1        0.0345
     27 C         139.6646  141.4935  159.4204 C.3     1  UNL1        0.0740
     28 N         139.0294  140.3448  160.1463 N.3     1  UNL1       -0.2638
     29 C         138.1328  140.9070  161.2093 C.3     1  UNL1        0.0884
     30 N         137.4775  143.3676  162.0223 N.3     1  UNL1       -0.2974
     31 H         136.9546  143.9899  161.4060 H       1  UNL1        0.1232
     32 C         137.9544  144.1663  164.4480 C.3     1  UNL1        0.0185
     33 C         138.2366  144.2409  162.9767 C.3     1  UNL1        0.0686
@<TRIPOS>BOND
     1    32    33    1
     2    33    30    1
     3    25    30    1
     4    25    26    1
     5    26    27    1
     6    27    28    1
     7    28    24    1
     8    24    20    1
     9    20    21    2
    10    20    22   am
    11    22     1    1
    12     1     2   ar
    13     2     3   ar
    14     3     7    1
    15     7     8   ar
    16     8     9   ar
    17     9    10    1
    18     9    11   ar
    19    11    12   ar
    20    12    13    1
    21     3     4   ar
    22     4     5   ar
    23     5    14    1
    24    14    15   ar
    25    15    16   ar
    26    16    17   ar
    27    17    18    1
    28    17    19   ar
    29     5     6   ar
    30    28    29    1
    31    29    25    1
    32     6     1   ar
    33    12     7   ar
    34    19    14   ar
    35    30    31    1
    36    22    23    1
@<TRIPOS>MOLECULE
*****
 33 36 0 0 0
SMALL
GASTEIGER

@<TRIPOS>ATOM
      1 C         142.8913  138.7733  158.6039 C.ar    1  UNL1        0.1390
      2 C         142.5264  137.3709  158.2166 C.ar    1  UNL1        0.0733
      3 C         143.0106  136.8021  156.9159 C.ar    1  UNL1        0.1679
      4 N         143.8596  137.6356  156.0025 N.ar    1  UNL1       -0.2047
      5 C         144.2245  139.0380  156.3898 C.ar    1  UNL1        0.2001
      6 N         143.7404  139.6069  157.6905 N.ar    1  UNL1       -0.2088
      7 N         142.6457  135.3996  156.5285 N.ar    1  UNL1       -0.2164
      8 N         143.2520  134.1453  157.0843 N.ar    1  UNL1       -0.1684
      9 C         142.5915  132.9758  156.4166 C.ar    1  UNL1        0.0805
     10 C         142.8927  131.5287  156.6724 C.3     1  UNL1        0.0540
     11 C         141.5768  133.5073  155.4480 C.ar    1  UNL1        0.0312
     12 C         141.6103  135.0053  155.5172 C.ar    1  UNL1        0.0637
     13 C         140.7580  135.9442  154.7159 C.3     1  UNL1        0.0522
     14 C         145.0736  139.8716  155.4764 C.ar    1  UNL1        0.1805
     15 C         145.0450  139.8443  153.9770 C.ar    1  UNL1        0.0434
     16 C         146.0541  140.8346  153.4759 C.ar    1  UNL1        0.0362
     17 C         146.7064  141.4740  154.6658 C.ar    1  UNL1        0.1234
     18 C         147.7767  142.5241  154.6262 C.3     1  UNL1        0.0725
     19 O         146.1004  140.8788  155.9021 O.2     1  UNL1       -0.4546
     20 C         143.0348  138.9044  161.1947 C.2     1  UNL1        0.2435
     21 O         144.1467  137.8977  161.1841 O.2     1  UNL1       -0.2732
     22 N         142.4071  139.3423  159.9047 N.am    1  UNL1       -0.2681
     23 H         141.6773  140.0030  159.9117 H       1  UNL1        0.1563
     24 C         142.5506  139.4734  162.4955 C.3     1  UNL1        0.1588
     25 C         139.1877  138.9656  164.3660 C.3     1  UNL1        0.0716
     26 C         139.2356  137.7310  163.5153 C.3     1  UNL1        0.0345
     27 C         140.5012  137.7710  162.7111 C.3     1  UNL1        0.0740
     28 N         141.2355  139.0302  163.0647 N.3     1  UNL1       -0.2638
     29 C         140.4237  139.7685  164.0875 C.3     1  UNL1        0.0884
     30 N         138.0956  139.3327  165.3264 N.3     1  UNL1       -0.2974
     31 H         137.9860  140.3455  165.2745 H       1  UNL1        0.1232
     32 C         139.2204  139.7112  167.6376 C.3     1  UNL1        0.0185
     33 C         138.2269  138.9853  166.7797 C.3     1  UNL1        0.0686
@<TRIPOS>BOND
     1    32    33    1
     2    33    30    1
     3    25    30    1
     4    25    26    1
     5    26    27    1
     6    27    28    1
     7    28    24    1
     8    24    20    1
     9    20    21    2
    10    20    22   am
    11    22     1    1
    12     1     2   ar
    13     2     3   ar
    14     3     7    1
    15     7     8   ar
    16     8     9   ar
    17     9    10    1
    18     9    11   ar
    19    11    12   ar
    20    12    13    1
    21     3     4   ar
    22     4     5   ar
    23     5    14    1
    24    14    15   ar
    25    15    16   ar
    26    16    17   ar
    27    17    18    1
    28    17    19   ar
    29     5     6   ar
    30    28    29    1
    31    29    25    1
    32     6     1   ar
    33    12     7   ar
    34    19    14   ar
    35    30    31    1
    36    22    23    1
@<TRIPOS>MOLECULE
*****
 33 36 0 0 0
SMALL
GASTEIGER

@<TRIPOS>ATOM
      1 C         142.7457  137.4698  157.8667 C.ar    1  UNL1        0.1390
      2 C         141.5847  137.7177  156.9500 C.ar    1  UNL1        0.0733
      3 C         141.1315  136.6435  156.0063 C.ar    1  UNL1        0.1679
      4 N         141.8394  135.3213  155.9793 N.ar    1  UNL1       -0.2047
      5 C         143.0004  135.0734  156.8961 C.ar    1  UNL1        0.2001
      6 N         143.4536  136.1476  157.8398 N.ar    1  UNL1       -0.2088
      7 N         139.9704  136.8914  155.0894 N.ar    1  UNL1       -0.2164
      8 N         138.6146  137.3865  155.4977 N.ar    1  UNL1       -0.1684
      9 C         137.7677  137.4888  154.2640 C.ar    1  UNL1        0.0805
     10 C         136.3391  137.9432  154.2105 C.3     1  UNL1        0.0540
     11 C         138.6000  137.0570  153.0931 C.ar    1  UNL1        0.0312
     12 C         139.9614  136.6878  153.6033 C.ar    1  UNL1        0.0637
     13 C         141.1118  136.2006  152.7731 C.3     1  UNL1        0.0522
     14 C         143.7083  133.7512  156.8691 C.ar    1  UNL1        0.1805
     15 C         144.5493  133.1787  157.9713 C.ar    1  UNL1        0.0434
     16 C         145.0603  131.8430  157.5186 C.ar    1  UNL1        0.0362
     17 C         144.5350  131.5900  156.1366 C.ar    1  UNL1        0.1234
     18 C         144.7989  130.3716  155.3024 C.3     1  UNL1        0.0725
     19 O         143.6994  132.7693  155.7352 O.2     1  UNL1       -0.4546
     20 C         142.8824  138.4399  160.2730 C.2     1  UNL1        0.2435
     21 O         142.1128  137.2616  160.7918 O.2     1  UNL1       -0.2732
     22 N         143.1989  138.5440  158.8105 N.am    1  UNL1       -0.2681
     23 H         143.7040  139.3174  158.4700 H       1  UNL1        0.1563
     24 C         143.3356  139.5142  161.2168 C.3     1  UNL1        0.1588
     25 C         141.7365  139.4817  164.7534 C.3     1  UNL1        0.0716
     26 C         143.1563  139.1190  165.0739 C.3     1  UNL1        0.0345
     27 C         143.9281  139.0870  163.7881 C.3     1  UNL1        0.0740
     28 N         142.9854  139.4299  162.6729 N.3     1  UNL1       -0.2638
     29 C         141.6309  139.6739  163.2695 C.3     1  UNL1        0.0884
     30 N         140.6187  139.6268  165.7430 N.3     1  UNL1       -0.2974
     31 H         140.9084  139.1354  166.5886 H       1  UNL1        0.1232
     32 C         139.0316  137.6792  165.0815 C.3     1  UNL1        0.0185
     33 C         139.2456  139.1289  165.4017 C.3     1  UNL1        0.0686
@<TRIPOS>BOND
     1    32    33    1
     2    33    30    1
     3    25    30    1
     4    25    26    1
     5    26    27    1
     6    27    28    1
     7    28    24    1
     8    24    20    1
     9    20    21    2
    10    20    22   am
    11    22     1    1
    12     1     2   ar
    13     2     3   ar
    14     3     7    1
    15     7     8   ar
    16     8     9   ar
    17     9    10    1
    18     9    11   ar
    19    11    12   ar
    20    12    13    1
    21     3     4   ar
    22     4     5   ar
    23     5    14    1
    24    14    15   ar
    25    15    16   ar
    26    16    17   ar
    27    17    18    1
    28    17    19   ar
    29     5     6   ar
    30    28    29    1
    31    29    25    1
    32     6     1   ar
    33    12     7   ar
    34    19    14   ar
    35    30    31    1
    36    22    23    1
@<TRIPOS>MOLECULE
*****
 33 36 0 0 0
SMALL
GASTEIGER

@<TRIPOS>ATOM
      1 C         139.1041  139.5510  156.9514 C.ar    1  UNL1        0.1390
      2 C         140.4850  139.8734  156.4623 C.ar    1  UNL1        0.0733
      3 C         141.6620  139.7098  157.3776 C.ar    1  UNL1        0.1679
      4 N         141.4582  139.2239  158.7820 N.ar    1  UNL1       -0.2047
      5 C         140.0773  138.9014  159.2711 C.ar    1  UNL1        0.2001
      6 N         138.9003  139.0650  158.3558 N.ar    1  UNL1       -0.2088
      7 N         143.0430  140.0322  156.8885 N.ar    1  UNL1       -0.2164
      8 N         143.8383  141.2555  157.2365 N.ar    1  UNL1       -0.1684
      9 C         145.1579  141.1672  156.5286 C.ar    1  UNL1        0.0805
     10 C         146.2632  142.1791  156.5946 C.3     1  UNL1        0.0540
     11 C         145.1780  139.8894  155.7432 C.ar    1  UNL1        0.0312
     12 C         143.8709  139.1880  155.9656 C.ar    1  UNL1        0.0637
     13 C         143.4633  137.8731  155.3698 C.3     1  UNL1        0.0522
     14 C         139.8735  138.4155  160.6754 C.ar    1  UNL1        0.1805
     15 C         138.5564  138.2872  161.3816 C.ar    1  UNL1        0.0434
     16 C         138.8199  137.7649  162.7629 C.ar    1  UNL1        0.0362
     17 C         140.2999  137.5703  162.9103 C.ar    1  UNL1        0.1234
     18 C         141.0049  137.0628  164.1332 C.3     1  UNL1        0.0725
     19 O         140.9510  137.9724  161.6202 O.2     1  UNL1       -0.4546
     20 C         137.0120  140.8926  156.1943 C.2     1  UNL1        0.2435
     21 O         137.2740  141.9070  157.2677 O.2     1  UNL1       -0.2732
     22 N         137.9270  139.7146  156.0361 N.am    1  UNL1       -0.2681
     23 H         137.7550  139.0488  155.3316 H       1  UNL1        0.1563
     24 C         135.8348  141.0561  155.2790 C.3     1  UNL1        0.1588
     25 C         132.6032  139.9012  157.0923 C.3     1  UNL1        0.0716
     26 C         132.0339  140.7717  156.0115 C.3     1  UNL1        0.0345
     27 C         133.1751  141.3103  155.2007 C.3     1  UNL1        0.0740
     28 N         134.4499  140.7727  155.7803 N.3     1  UNL1       -0.2638
     29 C         134.0964  139.9018  156.9494 C.3     1  UNL1        0.0884
     30 N         131.8174  139.1602  158.1332 N.3     1  UNL1       -0.2974
     31 H         132.1255  138.1885  158.0983 H       1  UNL1        0.1232
     32 C         129.5591  137.9715  158.6198 C.3     1  UNL1        0.0185
     33 C         130.3189  139.1419  158.0696 C.3     1  UNL1        0.0686
@<TRIPOS>BOND
     1    32    33    1
     2    33    30    1
     3    25    30    1
     4    25    26    1
     5    26    27    1
     6    27    28    1
     7    28    24    1
     8    24    20    1
     9    20    21    2
    10    20    22   am
    11    22     1    1
    12     1     2   ar
    13     2     3   ar
    14     3     7    1
    15     7     8   ar
    16     8     9   ar
    17     9    10    1
    18     9    11   ar
    19    11    12   ar
    20    12    13    1
    21     3     4   ar
    22     4     5   ar
    23     5    14    1
    24    14    15   ar
    25    15    16   ar
    26    16    17   ar
    27    17    18    1
    28    17    19   ar
    29     5     6   ar
    30    28    29    1
    31    29    25    1
    32     6     1   ar
    33    12     7   ar
    34    19    14   ar
    35    30    31    1
    36    22    23    1
@<TRIPOS>MOLECULE
*****
 33 36 0 0 0
SMALL
GASTEIGER

@<TRIPOS>ATOM
      1 C         139.8691  139.0264  158.9969 C.ar    1  UNL1        0.1390
      2 C         139.7790  138.5388  160.4126 C.ar    1  UNL1        0.0733
      3 C         139.8021  139.5202  161.5467 C.ar    1  UNL1        0.1679
      4 N         139.9153  140.9892  161.2652 N.ar    1  UNL1       -0.2047
      5 C         140.0054  141.4768  159.8495 C.ar    1  UNL1        0.2001
      6 N         139.9823  140.4954  158.7154 N.ar    1  UNL1       -0.2088
      7 N         139.7120  139.0326  162.9624 N.ar    1  UNL1       -0.2164
      8 N         138.5297  139.1830  163.8731 N.ar    1  UNL1       -0.1684
      9 C         138.8754  138.5524  165.1895 C.ar    1  UNL1        0.0805
     10 C         137.9820  138.4754  166.3920 C.3     1  UNL1        0.0540
     11 C         140.2715  138.0123  165.0923 C.ar    1  UNL1        0.0312
     12 C         140.7885  138.3091  163.7159 C.ar    1  UNL1        0.0637
     13 C         142.1440  137.9462  163.1860 C.3     1  UNL1        0.0522
     14 C         140.1186  142.9458  159.5680 C.ar    1  UNL1        0.1805
     15 C         140.2264  144.0345  160.5942 C.ar    1  UNL1        0.0434
     16 C         140.3183  145.3456  159.8713 C.ar    1  UNL1        0.0362
     17 C         140.2672  145.0672  158.3983 C.ar    1  UNL1        0.1234
     18 C         140.3288  146.0920  157.3046 C.3     1  UNL1        0.0725
     19 O         140.1438  143.5841  158.2108 O.2     1  UNL1       -0.4546
     20 C         141.1136  137.7120  157.1331 C.2     1  UNL1        0.2435
     21 O         142.4043  138.3605  157.5376 O.2     1  UNL1       -0.2732
     22 N         139.8460  138.0450  157.8627 N.am    1  UNL1       -0.2681
     23 H         138.9989  137.6194  157.5972 H       1  UNL1        0.1563
     24 C         141.0905  136.7306  155.9989 C.3     1  UNL1        0.1588
     25 C         143.5428  133.8098  156.7200 C.3     1  UNL1        0.0716
     26 C         142.5712  133.1490  155.7875 C.3     1  UNL1        0.0345
     27 C         141.5343  134.1628  155.4040 C.3     1  UNL1        0.0740
     28 N         141.8651  135.4500  156.0993 N.3     1  UNL1       -0.2638
     29 C         143.1064  135.2319  156.9126 C.3     1  UNL1        0.0884
     30 N         144.7405  133.1621  157.3492 N.3     1  UNL1       -0.2974
     31 H         145.5484  133.7333  157.1013 H       1  UNL1        0.1232
     32 C         144.4630  130.6130  157.7671 C.3     1  UNL1        0.0185
     33 C         145.0918  131.7441  157.0088 C.3     1  UNL1        0.0686
@<TRIPOS>BOND
     1    32    33    1
     2    33    30    1
     3    25    30    1
     4    25    26    1
     5    26    27    1
     6    27    28    1
     7    28    24    1
     8    24    20    1
     9    20    21    2
    10    20    22   am
    11    22     1    1
    12     1     2   ar
    13     2     3   ar
    14     3     7    1
    15     7     8   ar
    16     8     9   ar
    17     9    10    1
    18     9    11   ar
    19    11    12   ar
    20    12    13    1
    21     3     4   ar
    22     4     5   ar
    23     5    14    1
    24    14    15   ar
    25    15    16   ar
    26    16    17   ar
    27    17    18    1
    28    17    19   ar
    29     5     6   ar
    30    28    29    1
    31    29    25    1
    32     6     1   ar
    33    12     7   ar
    34    19    14   ar
    35    30    31    1
    36    22    23    1
