@<TRIPOS>MOLECULE
*****
 32 35 0 0 0
SMALL
GASTEIGER

@<TRIPOS>ATOM
      1 C         138.8119  140.6843  161.1890 C.ar    1  UNL1        0.0930
      2 C         138.6564  139.7228  160.0482 C.ar    1  UNL1        0.1067
      3 N         138.6460  138.3328  160.6119 N.ar    1  UNL1       -0.2252
      4 C         138.7950  138.4352  162.1009 C.ar    1  UNL1        0.1586
      5 N         138.8505  137.3929  163.1781 N.ar    1  UNL1       -0.3349
      6 C         139.0086  137.8039  164.6120 C.ar    1  UNL1        0.0945
      7 C         139.1112  139.2572  164.9687 C.ar    1  UNL1        0.1177
      8 N         139.0556  140.2996  163.8915 N.ar    1  UNL1       -0.2390
      9 C         138.8975  139.8886  162.4576 C.ar    1  UNL1        0.1210
     10 H         138.7832  136.4390  162.9440 H       1  UNL1        0.1675
     11 C         139.2693  139.6682  166.4026 C.2     1  UNL1        0.1230
     12 N         138.4320  139.1938  167.5532 N.2     1  UNL1       -0.1467
     13 N         138.9376  139.8581  168.7994 N.2     1  UNL1       -0.1519
     14 C         140.0874  140.7432  168.4190 C.2     1  UNL1        0.0880
     15 C         140.9743  141.6408  169.2300 C.3     1  UNL1        0.0885
     16 C         142.0660  142.4210  168.5598 C.2     1  UNL1       -0.0181
     17 C         142.2710  142.3037  167.0785 C.2     1  UNL1       -0.0040
     18 C         141.3842  141.4060  166.2674 C.2     1  UNL1        0.0025
     19 C         140.2924  140.6258  166.9377 C.2     1  UNL1        0.0366
     20 C         140.7693  141.7581  170.7114 C.3     1  UNL1        0.0974
     21 C         141.7452  140.6412  170.9350 C.3     1  UNL1        0.0300
     22 C         139.7933  142.8750  170.4878 C.3     1  UNL1        0.0300
     23 O         140.5642  141.8755  172.1926 O.3     1  UNL1       -0.3860
     24 H         141.1151  141.2198  172.6482 H       1  UNL1        0.2103
     25 N         139.5860  142.9797  162.1284 N.am    1  UNL1       -0.3039
     26 C         138.8713  142.1792  161.0802 C.2     1  UNL1        0.2488
     27 O         138.2161  142.8737  159.9234 O.2     1  UNL1       -0.2700
     28 H         140.0161  142.5239  162.8877 H       1  UNL1        0.1496
     29 C         138.3949  144.5839  162.8408 C.3     1  UNL1        0.0196
     30 C         139.6454  144.4746  162.0196 C.3     1  UNL1        0.0572
     31 C         140.8959  144.3651  161.1985 C.3     1  UNL1        0.0196
     32 C         139.7048  145.9693  161.9109 C.3     1  UNL1        0.0196
@<TRIPOS>BOND
     1    29    30    1
     2    30    31    1
     3    30    32    1
     4    30    25    1
     5    25    26   am
     6    26    27    2
     7    26     1    1
     8     1     2   ar
     9     2     3   ar
    10     3     4   ar
    11     4     5   ar
    12     5     6   ar
    13     6     7   ar
    14     7    11    1
    15    11    12    2
    16    12    13    1
    17    13    14    2
    18    14    15    1
    19    15    20    1
    20    20    21    1
    21    20    22    1
    22    20    23    1
    23    15    16    1
    24    16    17    2
    25    17    18    1
    26    18    19    2
    27     7     8   ar
    28     8     9   ar
    29     9     1   ar
    30     9     4    1
    31    19    11    1
    32    19    14    1
    33    25    28    1
    34     5    10    1
    35    23    24    1
@<TRIPOS>MOLECULE
*****
 32 35 0 0 0
SMALL
GASTEIGER

@<TRIPOS>ATOM
      1 C         138.4187  140.9438  161.3534 C.ar    1  UNL1        0.0930
      2 C         137.5346  140.2057  160.3923 C.ar    1  UNL1        0.1067
      3 N         137.4726  138.7715  160.8274 N.ar    1  UNL1       -0.2252
      4 C         138.3183  138.6233  162.0574 C.ar    1  UNL1        0.1586
      5 N         138.6316  137.4392  162.9233 N.ar    1  UNL1       -0.3349
      6 C         139.5295  137.5978  164.1143 C.ar    1  UNL1        0.0945
      7 C         140.1142  138.9403  164.4393 C.ar    1  UNL1        0.1177
      8 N         139.8010  140.1243  163.5734 N.ar    1  UNL1       -0.2390
      9 C         138.9031  139.9658  162.3824 C.ar    1  UNL1        0.1210
     10 H         138.2478  136.5581  162.7100 H       1  UNL1        0.1675
     11 C         141.0122  139.0988  165.6304 C.2     1  UNL1        0.1230
     12 N         142.4968  138.8849  165.6500 N.2     1  UNL1       -0.1467
     13 N         142.9854  139.1529  167.0426 N.2     1  UNL1       -0.1519
     14 C         141.8028  139.5324  167.8837 C.2     1  UNL1        0.0880
     15 C         141.6788  139.9041  169.3316 C.3     1  UNL1        0.0885
     16 C         140.3354  140.2424  169.9067 C.2     1  UNL1       -0.0181
     17 C         139.1159  140.2090  169.0339 C.2     1  UNL1       -0.0040
     18 C         139.2399  139.8372  167.5860 C.2     1  UNL1        0.0025
     19 C         140.5833  139.4990  167.0109 C.2     1  UNL1        0.0366
     20 C         142.8983  139.9375  170.2044 C.3     1  UNL1        0.0974
     21 C         142.7869  138.4569  170.4169 C.3     1  UNL1        0.0300
     22 C         143.0097  141.4182  169.9920 C.3     1  UNL1        0.0300
     23 O         144.1178  139.9710  171.0772 O.3     1  UNL1       -0.3860
     24 H         144.3128  139.0755  171.3949 H       1  UNL1        0.2103
     25 N         139.5898  143.0236  162.3796 N.am    1  UNL1       -0.3039
     26 C         138.7587  142.4036  161.2955 C.2     1  UNL1        0.2488
     27 O         138.2678  143.2434  160.1538 O.2     1  UNL1       -0.2700
     28 H         139.9120  142.4725  163.1289 H       1  UNL1        0.1496
     29 C         141.1604  144.1652  161.5253 C.3     1  UNL1        0.0196
     30 C         139.9298  144.4835  162.3217 C.3     1  UNL1        0.0572
     31 C         138.6992  144.8017  163.1182 C.3     1  UNL1        0.0196
     32 C         140.2698  145.9432  162.2639 C.3     1  UNL1        0.0196
@<TRIPOS>BOND
     1    29    30    1
     2    30    31    1
     3    30    32    1
     4    30    25    1
     5    25    26   am
     6    26    27    2
     7    26     1    1
     8     1     2   ar
     9     2     3   ar
    10     3     4   ar
    11     4     5   ar
    12     5     6   ar
    13     6     7   ar
    14     7    11    1
    15    11    12    2
    16    12    13    1
    17    13    14    2
    18    14    15    1
    19    15    20    1
    20    20    21    1
    21    20    22    1
    22    20    23    1
    23    15    16    1
    24    16    17    2
    25    17    18    1
    26    18    19    2
    27     7     8   ar
    28     8     9   ar
    29     9     1   ar
    30     9     4    1
    31    19    11    1
    32    19    14    1
    33    25    28    1
    34     5    10    1
    35    23    24    1
@<TRIPOS>MOLECULE
*****
 32 35 0 0 0
SMALL
GASTEIGER

@<TRIPOS>ATOM
      1 C         140.1611  142.8371  160.8478 C.ar    1  UNL1        0.0930
      2 C         139.5903  142.7601  159.4628 C.ar    1  UNL1        0.1067
      3 N         138.5120  141.7174  159.4633 N.ar    1  UNL1       -0.2252
      4 C         138.4164  141.1499  160.8485 C.ar    1  UNL1        0.1586
      5 N         137.5330  140.0925  161.4412 N.ar    1  UNL1       -0.3349
      6 C         137.6688  139.7271  162.8896 C.ar    1  UNL1        0.0945
      7 C         138.6880  140.4191  163.7453 C.ar    1  UNL1        0.1177
      8 N         139.5714  141.4766  163.1526 N.ar    1  UNL1       -0.2390
      9 C         139.4357  141.8420  161.7042 C.ar    1  UNL1        0.1210
     10 H         136.8641  139.6383  160.8795 H       1  UNL1        0.1675
     11 C         138.8238  140.0537  165.1938 C.2     1  UNL1        0.1230
     12 N         138.3626  138.7746  165.8274 N.2     1  UNL1       -0.1467
     13 N         138.6983  138.8335  167.2882 N.2     1  UNL1       -0.1519
     14 C         139.3670  140.1490  167.5574 C.2     1  UNL1        0.0880
     15 C         139.9154  140.7576  168.8139 C.3     1  UNL1        0.0885
     16 C         140.5412  142.1202  168.7761 C.2     1  UNL1       -0.0181
     17 C         140.6188  142.8743  167.4817 C.2     1  UNL1       -0.0040
     18 C         140.0704  142.2657  166.2252 C.2     1  UNL1        0.0025
     19 C         139.4446  140.9030  166.2630 C.2     1  UNL1        0.0366
     20 C         139.8378  140.0034  170.1083 C.3     1  UNL1        0.0974
     21 C         138.3990  140.4016  170.2541 C.3     1  UNL1        0.0300
     22 C         141.2766  139.6053  169.9625 C.3     1  UNL1        0.0300
     23 O         139.7603  139.2493  171.4026 O.3     1  UNL1       -0.3860
     24 H         138.8664  139.3295  171.7705 H       1  UNL1        0.2103
     25 N         141.8915  143.5586  162.6466 N.am    1  UNL1       -0.3039
     26 C         141.2638  143.7492  161.2976 C.2     1  UNL1        0.2488
     27 O         141.7389  144.8517  160.3984 O.2     1  UNL1       -0.2700
     28 H         141.5797  142.8349  163.2368 H       1  UNL1        0.1496
     29 C         144.0028  143.5740  162.4412 C.3     1  UNL1        0.0196
     30 C         142.9942  144.4706  163.0963 C.3     1  UNL1        0.0572
     31 C         141.9857  145.3671  163.7514 C.3     1  UNL1        0.0196
     32 C         144.0969  145.3826  163.5460 C.3     1  UNL1        0.0196
@<TRIPOS>BOND
     1    29    30    1
     2    30    31    1
     3    30    32    1
     4    30    25    1
     5    25    26   am
     6    26    27    2
     7    26     1    1
     8     1     2   ar
     9     2     3   ar
    10     3     4   ar
    11     4     5   ar
    12     5     6   ar
    13     6     7   ar
    14     7    11    1
    15    11    12    2
    16    12    13    1
    17    13    14    2
    18    14    15    1
    19    15    20    1
    20    20    21    1
    21    20    22    1
    22    20    23    1
    23    15    16    1
    24    16    17    2
    25    17    18    1
    26    18    19    2
    27     7     8   ar
    28     8     9   ar
    29     9     1   ar
    30     9     4    1
    31    19    11    1
    32    19    14    1
    33    25    28    1
    34     5    10    1
    35    23    24    1
@<TRIPOS>MOLECULE
*****
 32 35 0 0 0
SMALL
GASTEIGER

@<TRIPOS>ATOM
      1 C         141.1749  139.7567  161.4229 C.ar    1  UNL1        0.0930
      2 C         140.7548  138.8655  160.2918 C.ar    1  UNL1        0.1067
      3 N         139.7951  137.8486  160.8349 N.ar    1  UNL1       -0.2252
      4 C         139.6221  138.1113  162.3016 C.ar    1  UNL1        0.1586
      5 N         138.7983  137.4290  163.3531 N.ar    1  UNL1       -0.3349
      6 C         138.8272  137.9259  164.7680 C.ar    1  UNL1        0.0945
      7 C         139.6800  139.1052  165.1315 C.ar    1  UNL1        0.1177
      8 N         140.5039  139.7875  164.0799 N.ar    1  UNL1       -0.2390
      9 C         140.4749  139.2905  162.6650 C.ar    1  UNL1        0.1210
     10 H         138.2386  136.6550  163.1145 H       1  UNL1        0.1675
     11 C         139.7090  139.6022  166.5465 C.2     1  UNL1        0.1230
     12 N         138.7489  139.2217  167.6344 N.2     1  UNL1       -0.1467
     13 N         139.1495  139.9512  168.8823 N.2     1  UNL1       -0.1519
     14 C         140.3573  140.7825  168.5656 C.2     1  UNL1        0.0880
     15 C         141.1869  141.7081  169.4053 C.3     1  UNL1        0.0885
     16 C         142.3622  142.4179  168.8014 C.2     1  UNL1       -0.0181
     17 C         142.7080  142.2022  167.3578 C.2     1  UNL1       -0.0040
     18 C         141.8784  141.2766  166.5181 C.2     1  UNL1        0.0025
     19 C         140.7030  140.5668  167.1220 C.2     1  UNL1        0.0366
     20 C         140.8412  141.9238  170.8489 C.3     1  UNL1        0.0974
     21 C         139.8959  143.0212  170.4586 C.3     1  UNL1        0.0300
     22 C         141.7864  140.8264  171.2392 C.3     1  UNL1        0.0300
     23 O         140.4954  142.1394  172.2925 O.3     1  UNL1       -0.3860
     24 H         139.8446  142.8549  172.3657 H       1  UNL1        0.2103
     25 N         142.5896  141.6065  162.5750 N.am    1  UNL1       -0.3039
     26 C         142.1278  140.9113  161.3285 C.2     1  UNL1        0.2488
     27 O         142.6189  141.3708  159.9879 O.2     1  UNL1       -0.2700
     28 H         142.2673  141.3049  163.4550 H       1  UNL1        0.1496
     29 C         144.7008  141.8130  162.5784 C.3     1  UNL1        0.0196
     30 C         143.5425  142.7611  162.4806 C.3     1  UNL1        0.0572
     31 C         142.3841  143.7091  162.3829 C.3     1  UNL1        0.0196
     32 C         144.4953  143.9156  162.3863 C.3     1  UNL1        0.0196
@<TRIPOS>BOND
     1    29    30    1
     2    30    31    1
     3    30    32    1
     4    30    25    1
     5    25    26   am
     6    26    27    2
     7    26     1    1
     8     1     2   ar
     9     2     3   ar
    10     3     4   ar
    11     4     5   ar
    12     5     6   ar
    13     6     7   ar
    14     7    11    1
    15    11    12    2
    16    12    13    1
    17    13    14    2
    18    14    15    1
    19    15    20    1
    20    20    21    1
    21    20    22    1
    22    20    23    1
    23    15    16    1
    24    16    17    2
    25    17    18    1
    26    18    19    2
    27     7     8   ar
    28     8     9   ar
    29     9     1   ar
    30     9     4    1
    31    19    11    1
    32    19    14    1
    33    25    28    1
    34     5    10    1
    35    23    24    1
@<TRIPOS>MOLECULE
*****
 32 35 0 0 0
SMALL
GASTEIGER

@<TRIPOS>ATOM
      1 C         140.9078  142.5108  160.9243 C.ar    1  UNL1        0.0930
      2 C         141.2753  143.3452  159.7332 C.ar    1  UNL1        0.1067
      3 N         142.3095  144.3415  160.1666 N.ar    1  UNL1       -0.2252
      4 C         142.5812  144.1228  161.6255 C.ar    1  UNL1        0.1586
      5 N         143.5055  144.8078  162.5880 N.ar    1  UNL1       -0.3349
      6 C         143.5634  144.3614  164.0188 C.ar    1  UNL1        0.0945
      7 C         142.6971  143.2300  164.4871 C.ar    1  UNL1        0.1177
      8 N         141.7728  142.5450  163.5246 N.ar    1  UNL1       -0.2390
      9 C         141.7149  142.9914  162.0938 C.ar    1  UNL1        0.1210
     10 H         144.0741  145.5504  162.2806 H       1  UNL1        0.1675
     11 C         142.7551  142.7835  165.9180 C.2     1  UNL1        0.1230
     12 N         143.8550  143.0860  166.8921 N.2     1  UNL1       -0.1467
     13 N         143.5031  142.4457  168.2021 N.2     1  UNL1       -0.1519
     14 C         142.1856  141.7475  168.0377 C.2     1  UNL1        0.0880
     15 C         141.3472  140.9486  168.9910 C.3     1  UNL1        0.0885
     16 C         140.0466  140.3586  168.5327 C.2     1  UNL1       -0.0181
     17 C         139.5843  140.5674  167.1210 C.2     1  UNL1       -0.0040
     18 C         140.4227  141.3663  166.1677 C.2     1  UNL1        0.0025
     19 C         141.7234  141.9563  166.6260 C.2     1  UNL1        0.0366
     20 C         141.8096  140.7398  170.4027 C.3     1  UNL1        0.0974
     21 C         141.1442  142.0209  170.8101 C.3     1  UNL1        0.0300
     22 C         142.4750  139.4588  169.9952 C.3     1  UNL1        0.0300
     23 O         142.2719  140.5310  171.8142 O.3     1  UNL1       -0.3860
     24 H         141.9659  141.2670  172.3669 H       1  UNL1        0.2103
     25 N         140.0231  140.3010  161.9657 N.am    1  UNL1       -0.3039
     26 C         139.9086  141.3922  160.9427 C.2     1  UNL1        0.2488
     27 O         138.7950  141.3646  159.9383 O.2     1  UNL1       -0.2700
     28 H         140.7540  140.3191  162.6250 H       1  UNL1        0.1496
     29 C         139.8804  138.4018  161.0317 C.3     1  UNL1        0.0196
     30 C         139.0239  139.1824  161.9842 C.3     1  UNL1        0.0572
     31 C         138.1675  139.9630  162.9366 C.3     1  UNL1        0.0196
     32 C         138.0249  138.0638  162.0026 C.3     1  UNL1        0.0196
@<TRIPOS>BOND
     1    29    30    1
     2    30    31    1
     3    30    32    1
     4    30    25    1
     5    25    26   am
     6    26    27    2
     7    26     1    1
     8     1     2   ar
     9     2     3   ar
    10     3     4   ar
    11     4     5   ar
    12     5     6   ar
    13     6     7   ar
    14     7    11    1
    15    11    12    2
    16    12    13    1
    17    13    14    2
    18    14    15    1
    19    15    20    1
    20    20    21    1
    21    20    22    1
    22    20    23    1
    23    15    16    1
    24    16    17    2
    25    17    18    1
    26    18    19    2
    27     7     8   ar
    28     8     9   ar
    29     9     1   ar
    30     9     4    1
    31    19    11    1
    32    19    14    1
    33    25    28    1
    34     5    10    1
    35    23    24    1
@<TRIPOS>MOLECULE
*****
 32 35 0 0 0
SMALL
GASTEIGER

@<TRIPOS>ATOM
      1 C         143.0361  141.9280  161.2378 C.ar    1  UNL1        0.0930
      2 C         143.7133  141.3874  160.0134 C.ar    1  UNL1        0.1067
      3 N         144.4114  140.1154  160.3934 N.ar    1  UNL1       -0.2252
      4 C         144.1658  139.8698  161.8526 C.ar    1  UNL1        0.1586
      5 N         144.6062  138.7708  162.7736 N.ar    1  UNL1       -0.3349
      6 C         144.1967  138.7922  164.2164 C.ar    1  UNL1        0.0945
      7 C         143.3466  139.9125  164.7382 C.ar    1  UNL1        0.1177
      8 N         142.9062  141.0114  163.8173 N.ar    1  UNL1       -0.2390
      9 C         143.3157  140.9901  162.3745 C.ar    1  UNL1        0.1210
     10 H         145.1642  138.0355  162.4310 H       1  UNL1        0.1675
     11 C         142.9371  139.9337  166.1811 C.2     1  UNL1        0.1230
     12 N         143.3716  138.9592  167.2354 N.2     1  UNL1       -0.1467
     13 N         142.7242  139.3564  168.5289 N.2     1  UNL1       -0.1519
     14 C         141.8896  140.5765  168.2740 C.2     1  UNL1        0.0880
     15 C         141.0268  141.4086  169.1757 C.3     1  UNL1        0.0885
     16 C         140.2956  142.5975  168.6264 C.2     1  UNL1       -0.0181
     17 C         140.4271  142.9543  167.1754 C.2     1  UNL1       -0.0040
     18 C         141.2899  142.1222  166.2737 C.2     1  UNL1        0.0025
     19 C         142.0211  140.9332  166.8230 C.2     1  UNL1        0.0366
     20 C         140.8952  141.0518  170.6267 C.3     1  UNL1        0.0974
     21 C         139.7243  140.1715  170.3042 C.3     1  UNL1        0.0300
     22 C         142.0661  141.9321  170.9493 C.3     1  UNL1        0.0300
     23 O         140.7637  140.6950  172.0777 O.3     1  UNL1       -0.3860
     24 H         140.0215  140.0814  172.1938 H       1  UNL1        0.2103
     25 N         141.1142  143.3037  162.3169 N.am    1  UNL1       -0.3039
     26 C         142.2221  143.1858  161.3124 C.2     1  UNL1        0.2488
     27 O         142.5159  144.3256  160.3827 O.2     1  UNL1       -0.2700
     28 H         140.9214  142.5556  162.9271 H       1  UNL1        0.1496
     29 C         141.2534  145.1179  163.4073 C.3     1  UNL1        0.0196
     30 C         140.3003  144.5614  162.3915 C.3     1  UNL1        0.0572
     31 C         139.3472  144.0049  161.3756 C.3     1  UNL1        0.0196
     32 C         139.4864  145.8191  162.4661 C.3     1  UNL1        0.0196
@<TRIPOS>BOND
     1    29    30    1
     2    30    31    1
     3    30    32    1
     4    30    25    1
     5    25    26   am
     6    26    27    2
     7    26     1    1
     8     1     2   ar
     9     2     3   ar
    10     3     4   ar
    11     4     5   ar
    12     5     6   ar
    13     6     7   ar
    14     7    11    1
    15    11    12    2
    16    12    13    1
    17    13    14    2
    18    14    15    1
    19    15    20    1
    20    20    21    1
    21    20    22    1
    22    20    23    1
    23    15    16    1
    24    16    17    2
    25    17    18    1
    26    18    19    2
    27     7     8   ar
    28     8     9   ar
    29     9     1   ar
    30     9     4    1
    31    19    11    1
    32    19    14    1
    33    25    28    1
    34     5    10    1
    35    23    24    1
@<TRIPOS>MOLECULE
*****
 32 35 0 0 0
SMALL
GASTEIGER

@<TRIPOS>ATOM
      1 C         142.6374  142.8333  159.6856 C.ar    1  UNL1        0.0930
      2 C         142.7172  143.6994  158.4636 C.ar    1  UNL1        0.1067
      3 N         142.0023  144.9846  158.7589 N.ar    1  UNL1       -0.2252
      4 C         141.4806  144.9127  160.1634 C.ar    1  UNL1        0.1586
      5 N         140.6988  145.8862  160.9948 N.ar    1  UNL1       -0.3349
      6 C         140.3096  145.5300  162.3989 C.ar    1  UNL1        0.0945
      7 C         140.7021  144.2004  162.9717 C.ar    1  UNL1        0.1177
      8 N         141.4838  143.2269  162.1403 N.ar    1  UNL1       -0.2390
      9 C         141.8731  143.5831  160.7362 C.ar    1  UNL1        0.1210
     10 H         140.4412  146.7588  160.6189 H       1  UNL1        0.1675
     11 C         140.3128  143.8442  164.3759 C.2     1  UNL1        0.1230
     12 N         138.9683  144.0688  165.0019 N.2     1  UNL1       -0.1467
     13 N         139.0242  143.5644  166.4135 N.2     1  UNL1       -0.1519
     14 C         140.4033  143.0281  166.6598 C.2     1  UNL1        0.0880
     15 C         141.0368  142.4046  167.8681 C.3     1  UNL1        0.0885
     16 C         142.4665  141.9541  167.8171 C.2     1  UNL1       -0.0181
     17 C         143.2630  142.1271  166.5577 C.2     1  UNL1       -0.0040
     18 C         142.6295  142.7505  165.3494 C.2     1  UNL1        0.0025
     19 C         141.1997  143.2011  165.4005 C.2     1  UNL1        0.0366
     20 C         140.2403  142.2317  169.1274 C.3     1  UNL1        0.0974
     21 C         140.6061  143.6237  169.5500 C.3     1  UNL1        0.0300
     22 C         139.8746  140.8397  168.7048 C.3     1  UNL1        0.0300
     23 O         139.4439  142.0587  170.3866 O.3     1  UNL1       -0.3860
     24 H         139.4952  142.8701  170.9157 H       1  UNL1        0.2103
     25 N         142.7474  140.5572  160.9337 N.am    1  UNL1       -0.3039
     26 C         143.2196  141.4586  159.8315 C.2     1  UNL1        0.2488
     27 O         144.2739  140.9852  158.8754 O.2     1  UNL1       -0.2700
     28 H         142.0553  140.8678  161.5613 H       1  UNL1        0.1496
     29 C         142.3356  138.6563  160.0870 C.3     1  UNL1        0.0196
     30 C         143.3296  139.1825  161.0796 C.3     1  UNL1        0.0572
     31 C         144.3235  139.7087  162.0722 C.3     1  UNL1        0.0196
     32 C         143.9117  137.8079  161.2255 C.3     1  UNL1        0.0196
@<TRIPOS>BOND
     1    29    30    1
     2    30    31    1
     3    30    32    1
     4    30    25    1
     5    25    26   am
     6    26    27    2
     7    26     1    1
     8     1     2   ar
     9     2     3   ar
    10     3     4   ar
    11     4     5   ar
    12     5     6   ar
    13     6     7   ar
    14     7    11    1
    15    11    12    2
    16    12    13    1
    17    13    14    2
    18    14    15    1
    19    15    20    1
    20    20    21    1
    21    20    22    1
    22    20    23    1
    23    15    16    1
    24    16    17    2
    25    17    18    1
    26    18    19    2
    27     7     8   ar
    28     8     9   ar
    29     9     1   ar
    30     9     4    1
    31    19    11    1
    32    19    14    1
    33    25    28    1
    34     5    10    1
    35    23    24    1
@<TRIPOS>MOLECULE
*****
 32 35 0 0 0
SMALL
GASTEIGER

@<TRIPOS>ATOM
      1 C         140.7895  142.2887  160.8738 C.ar    1  UNL1        0.0930
      2 C         140.1226  143.0884  159.7941 C.ar    1  UNL1        0.1067
      3 N         139.2692  144.1326  160.4507 N.ar    1  UNL1       -0.2252
      4 C         139.4085  143.9783  161.9362 C.ar    1  UNL1        0.1586
      5 N         138.8012  144.7283  163.0845 N.ar    1  UNL1       -0.3349
      6 C         139.1335  144.3386  164.4944 C.ar    1  UNL1        0.0945
      7 C         140.0731  143.1990  164.7559 C.ar    1  UNL1        0.1177
      8 N         140.6804  142.4490  163.6076 N.ar    1  UNL1       -0.2390
      9 C         140.3481  142.8387  162.1977 C.ar    1  UNL1        0.1210
     10 H         138.1845  145.4762  162.9129 H       1  UNL1        0.1675
     11 C         140.4054  142.8093  166.1658 C.2     1  UNL1        0.1230
     12 N         139.9751  143.5353  167.4059 N.2     1  UNL1       -0.1467
     13 N         140.5300  142.8001  168.5897 N.2     1  UNL1       -0.1519
     14 C         141.3034  141.6196  168.0812 C.2     1  UNL1        0.0880
     15 C         142.0677  140.5401  168.7887 C.3     1  UNL1        0.0885
     16 C         142.7550  139.4665  167.9983 C.2     1  UNL1       -0.0181
     17 C         142.6780  139.4723  166.5002 C.2     1  UNL1       -0.0040
     18 C         141.9136  140.5517  165.7927 C.2     1  UNL1        0.0025
     19 C         141.2263  141.6253  166.5832 C.2     1  UNL1        0.0366
     20 C         142.1447  140.5344  170.2868 C.3     1  UNL1        0.0974
     21 C         143.4065  141.3432  170.2250 C.3     1  UNL1        0.0300
     22 C         140.8830  139.7256  170.3485 C.3     1  UNL1        0.0300
     23 O         142.2217  140.5287  171.7848 O.3     1  UNL1       -0.3860
     24 H         143.0075  141.0205  172.0700 H       1  UNL1        0.2103
     25 N         142.0102  140.1858  161.7893 N.am    1  UNL1       -0.3039
     26 C         141.7322  141.1406  160.6661 C.2     1  UNL1        0.2488
     27 O         142.3969  140.9471  159.3355 O.2     1  UNL1       -0.2700
     28 H         141.5739  140.3127  162.6626 H       1  UNL1        0.1496
     29 C         141.8063  138.1758  161.1427 C.3     1  UNL1        0.0196
     30 C         142.9529  139.0377  161.5816 C.3     1  UNL1        0.0572
     31 C         144.0994  139.8996  162.0205 C.3     1  UNL1        0.0196
     32 C         143.8955  137.8896  161.3739 C.3     1  UNL1        0.0196
@<TRIPOS>BOND
     1    29    30    1
     2    30    31    1
     3    30    32    1
     4    30    25    1
     5    25    26   am
     6    26    27    2
     7    26     1    1
     8     1     2   ar
     9     2     3   ar
    10     3     4   ar
    11     4     5   ar
    12     5     6   ar
    13     6     7   ar
    14     7    11    1
    15    11    12    2
    16    12    13    1
    17    13    14    2
    18    14    15    1
    19    15    20    1
    20    20    21    1
    21    20    22    1
    22    20    23    1
    23    15    16    1
    24    16    17    2
    25    17    18    1
    26    18    19    2
    27     7     8   ar
    28     8     9   ar
    29     9     1   ar
    30     9     4    1
    31    19    11    1
    32    19    14    1
    33    25    28    1
    34     5    10    1
    35    23    24    1
@<TRIPOS>MOLECULE
*****
 32 35 0 0 0
SMALL
GASTEIGER

@<TRIPOS>ATOM
      1 C         142.6036  142.4963  160.3372 C.ar    1  UNL1        0.0930
      2 C         142.2932  143.5381  159.3036 C.ar    1  UNL1        0.1067
      3 N         141.9437  144.8099  160.0179 N.ar    1  UNL1       -0.2252
      4 C         142.0381  144.5542  161.4929 C.ar    1  UNL1        0.1586
      5 N         141.8054  145.4386  162.6819 N.ar    1  UNL1       -0.3349
      6 C         141.9805  144.8931  164.0681 C.ar    1  UNL1        0.0945
      7 C         142.3884  143.4631  164.2654 C.ar    1  UNL1        0.1177
      8 N         142.6211  142.5787  163.0765 N.ar    1  UNL1       -0.2390
      9 C         142.4460  143.1242  161.6903 C.ar    1  UNL1        0.1210
     10 H         141.5377  146.3771  162.5524 H       1  UNL1        0.1675
     11 C         142.5635  142.9176  165.6518 C.2     1  UNL1        0.1230
     12 N         143.7342  143.1668  166.5559 N.2     1  UNL1       -0.1467
     13 N         143.4929  142.4304  167.8402 N.2     1  UNL1       -0.1519
     14 C         142.1731  141.7261  167.7298 C.2     1  UNL1        0.0880
     15 C         141.4202  140.8495  168.6861 C.3     1  UNL1        0.0885
     16 C         140.0929  140.2740  168.2900 C.2     1  UNL1       -0.0181
     17 C         139.5184  140.5751  166.9374 C.2     1  UNL1       -0.0040
     18 C         140.2714  141.4517  165.9811 C.2     1  UNL1        0.0025
     19 C         141.5987  142.0272  166.3773 C.2     1  UNL1        0.0366
     20 C         141.9947  140.5484  170.0387 C.3     1  UNL1        0.0974
     21 C         141.4287  141.8338  170.5653 C.3     1  UNL1        0.0300
     22 C         142.5606  139.2629  169.5122 C.3     1  UNL1        0.0300
     23 O         142.5691  140.2472  171.3912 O.3     1  UNL1       -0.3860
     24 H         142.3479  140.9660  172.0038 H       1  UNL1        0.2103
     25 N         142.4272  139.9644  160.8929 N.am    1  UNL1       -0.3039
     26 C         143.0018  141.0758  160.0654 C.2     1  UNL1        0.2488
     27 O         143.9745  140.7667  158.9663 O.2     1  UNL1       -0.2700
     28 H         141.7887  140.1672  161.6143 H       1  UNL1        0.1496
     29 C         141.7289  138.4314  159.6037 C.3     1  UNL1        0.0196
     30 C         142.8253  138.5440  160.6211 C.3     1  UNL1        0.0572
     31 C         143.9218  138.6567  161.6386 C.3     1  UNL1        0.0196
     32 C         143.2235  137.1236  160.3494 C.3     1  UNL1        0.0196
@<TRIPOS>BOND
     1    29    30    1
     2    30    31    1
     3    30    32    1
     4    30    25    1
     5    25    26   am
     6    26    27    2
     7    26     1    1
     8     1     2   ar
     9     2     3   ar
    10     3     4   ar
    11     4     5   ar
    12     5     6   ar
    13     6     7   ar
    14     7    11    1
    15    11    12    2
    16    12    13    1
    17    13    14    2
    18    14    15    1
    19    15    20    1
    20    20    21    1
    21    20    22    1
    22    20    23    1
    23    15    16    1
    24    16    17    2
    25    17    18    1
    26    18    19    2
    27     7     8   ar
    28     8     9   ar
    29     9     1   ar
    30     9     4    1
    31    19    11    1
    32    19    14    1
    33    25    28    1
    34     5    10    1
    35    23    24    1
