@<TRIPOS>MOLECULE
*****
 26 28 0 0 0
SMALL
GASTEIGER

@<TRIPOS>ATOM
      1 C         139.7416  140.1616  169.5792 C.ar    1  UNL1        0.0286
      2 C         140.0014  140.0083  168.1098 C.ar    1  UNL1        0.0147
      3 C         141.4103  139.9278  167.6017 C.ar    1  UNL1        0.0482
      4 C         142.5596  140.0007  168.5629 C.ar    1  UNL1        0.0177
      5 C         142.2999  140.1540  170.0322 C.ar    1  UNL1        0.0376
      6 C         140.8908  140.2345  170.5404 C.ar    1  UNL1        0.1310
      7 O         140.6310  140.3878  172.0097 O.3     1  UNL1       -0.5058
      8 H         141.3489  140.4333  172.6102 H       1  UNL1        0.2922
      9 N         141.6701  139.7745  166.1323 N.pl3   1  UNL1       -0.3125
     10 H         142.5927  139.8029  165.7899 H       1  UNL1        0.1522
     11 C         140.5241  139.5779  165.1846 C.ar    1  UNL1        0.0513
     12 C         140.1306  138.1941  164.7603 C.ar    1  UNL1        0.0353
     13 C         138.9847  137.9976  163.8126 C.ar    1  UNL1        0.1001
     14 N         138.2322  139.1849  163.2892 N.ar    1  UNL1       -0.2437
     15 C         138.6257  140.5688  163.7135 C.ar    1  UNL1        0.0833
     16 C         137.8732  141.7561  163.1901 C.ar    1  UNL1        0.0305
     17 C         138.2667  143.1400  163.6143 C.ar    1  UNL1        0.0592
     18 CL        137.5142  144.3274  163.0909 Cl      1  UNL1       -0.0822
     19 C         139.4127  143.3366  164.5620 C.ar    1  UNL1        0.0115
     20 C         140.1651  142.1492  165.0855 C.ar    1  UNL1        0.0036
     21 C         139.7716  140.7653  164.6612 C.ar    1  UNL1        0.0312
     22 C         138.3325  140.2420  170.0873 C.3     1  UNL1        0.0987
     23 N         137.8414  139.2474  171.0970 N.3     1  UNL1       -0.2937
     24 H         138.3346  138.3736  170.9135 H       1  UNL1        0.1236
     25 C         135.9225  137.7290  171.9702 C.3     1  UNL1        0.0185
     26 C         136.3811  138.9130  171.1715 C.3     1  UNL1        0.0689
@<TRIPOS>BOND
     1    25    26    1
     2    26    23    1
     3    23    22    1
     4    22     1    1
     5     1     2   ar
     6     2     3   ar
     7     3     9    1
     8     9    11    1
     9    11    12   ar
    10    12    13   ar
    11    13    14   ar
    12    14    15   ar
    13    15    16   ar
    14    16    17   ar
    15    17    18    1
    16    17    19   ar
    17    19    20   ar
    18    20    21   ar
    19     3     4   ar
    20     4     5   ar
    21     5     6   ar
    22     6     7    1
    23     6     1   ar
    24    21    11   ar
    25    21    15   ar
    26    23    24    1
    27     9    10    1
    28     7     8    1
@<TRIPOS>MOLECULE
*****
 26 28 0 0 0
SMALL
GASTEIGER

@<TRIPOS>ATOM
      1 C         138.8883  143.3815  164.5065 C.ar    1  UNL1        0.0286
      2 C         139.4901  142.3791  165.4462 C.ar    1  UNL1        0.0147
      3 C         139.1170  140.9304  165.3371 C.ar    1  UNL1        0.0482
      4 C         138.1420  140.4839  164.2882 C.ar    1  UNL1        0.0177
      5 C         137.5401  141.4863  163.3485 C.ar    1  UNL1        0.0376
      6 C         137.9133  142.9351  163.4577 C.ar    1  UNL1        0.1310
      7 O         137.3114  143.9374  162.5179 O.3     1  UNL1       -0.5058
      8 H         136.7023  143.6585  161.8628 H       1  UNL1        0.2922
      9 N         139.7189  139.9281  166.2768 N.pl3   1  UNL1       -0.3125
     10 H         140.0782  139.0804  165.9283 H       1  UNL1        0.1522
     11 C         139.7733  140.2174  167.7477 C.ar    1  UNL1        0.0513
     12 C         138.6170  139.8464  168.6283 C.ar    1  UNL1        0.0353
     13 C         138.6714  140.1357  170.0991 C.ar    1  UNL1        0.1001
     14 N         139.8821  140.7959  170.6893 N.ar    1  UNL1       -0.2437
     15 C         141.0384  141.1669  169.8088 C.ar    1  UNL1        0.0833
     16 C         142.2490  141.8271  170.3990 C.ar    1  UNL1        0.0305
     17 C         143.4053  142.1981  169.5184 C.ar    1  UNL1        0.0592
     18 CL        144.6159  142.8583  170.1087 Cl      1  UNL1       -0.0822
     19 C         143.3509  141.9088  168.0475 C.ar    1  UNL1        0.0115
     20 C         142.1402  141.2485  167.4573 C.ar    1  UNL1        0.0036
     21 C         140.9839  140.8776  168.3380 C.ar    1  UNL1        0.0312
     22 C         139.2614  144.8302  164.6156 C.3     1  UNL1        0.0987
     23 N         139.7659  145.5676  163.4107 N.3     1  UNL1       -0.2937
     24 H         139.1008  145.3913  162.6578 H       1  UNL1        0.1236
     25 C         142.3127  145.2147  163.7841 C.3     1  UNL1        0.0185
     26 C         141.1295  145.2660  162.8634 C.3     1  UNL1        0.0689
@<TRIPOS>BOND
     1    25    26    1
     2    26    23    1
     3    23    22    1
     4    22     1    1
     5     1     2   ar
     6     2     3   ar
     7     3     9    1
     8     9    11    1
     9    11    12   ar
    10    12    13   ar
    11    13    14   ar
    12    14    15   ar
    13    15    16   ar
    14    16    17   ar
    15    17    18    1
    16    17    19   ar
    17    19    20   ar
    18    20    21   ar
    19     3     4   ar
    20     4     5   ar
    21     5     6   ar
    22     6     7    1
    23     6     1   ar
    24    21    11   ar
    25    21    15   ar
    26    23    24    1
    27     9    10    1
    28     7     8    1
@<TRIPOS>MOLECULE
*****
 26 28 0 0 0
SMALL
GASTEIGER

@<TRIPOS>ATOM
      1 C         140.7113  144.7440  163.6739 C.ar    1  UNL1        0.0286
      2 C         140.3833  143.4911  164.4307 C.ar    1  UNL1        0.0147
      3 C         139.0065  142.9020  164.3453 C.ar    1  UNL1        0.0482
      4 C         137.9576  143.5658  163.5030 C.ar    1  UNL1        0.0177
      5 C         138.2856  144.8186  162.7462 C.ar    1  UNL1        0.0376
      6 C         139.6625  145.4078  162.8317 C.ar    1  UNL1        0.1310
      7 O         139.9905  146.6606  162.0749 O.3     1  UNL1       -0.5058
      8 H         139.3353  147.0753  161.5488 H       1  UNL1        0.2922
      9 N         138.6785  141.6491  165.1021 N.pl3   1  UNL1       -0.3125
     10 H         138.1730  141.7014  165.9453 H       1  UNL1        0.1522
     11 C         139.1208  140.3165  164.5742 C.ar    1  UNL1        0.0513
     12 C         138.2989  139.6104  163.5370 C.ar    1  UNL1        0.0353
     13 C         138.7412  138.2778  163.0092 C.ar    1  UNL1        0.1001
     14 N         140.0054  137.6515  163.5185 N.ar    1  UNL1       -0.2437
     15 C         140.8274  138.3576  164.5556 C.ar    1  UNL1        0.0833
     16 C         142.0916  137.7313  165.0649 C.ar    1  UNL1        0.0305
     17 C         142.9135  138.4374  166.1020 C.ar    1  UNL1        0.0592
     18 CL        144.1778  137.8111  166.6113 Cl      1  UNL1       -0.0822
     19 C         142.4712  139.7700  166.6300 C.ar    1  UNL1        0.0115
     20 C         141.2070  140.3964  166.1207 C.ar    1  UNL1        0.0036
     21 C         140.3851  139.6902  165.0835 C.ar    1  UNL1        0.0312
     22 C         142.0882  145.3331  163.7594 C.3     1  UNL1        0.0987
     23 N         143.0762  145.0935  162.6566 N.3     1  UNL1       -0.2937
     24 H         142.5398  144.8066  161.8379 H       1  UNL1        0.1236
     25 C         144.2814  143.3186  164.1220 C.3     1  UNL1        0.0185
     26 C         144.1686  144.0812  162.8352 C.3     1  UNL1        0.0689
@<TRIPOS>BOND
     1    25    26    1
     2    26    23    1
     3    23    22    1
     4    22     1    1
     5     1     2   ar
     6     2     3   ar
     7     3     9    1
     8     9    11    1
     9    11    12   ar
    10    12    13   ar
    11    13    14   ar
    12    14    15   ar
    13    15    16   ar
    14    16    17   ar
    15    17    18    1
    16    17    19   ar
    17    19    20   ar
    18    20    21   ar
    19     3     4   ar
    20     4     5   ar
    21     5     6   ar
    22     6     7    1
    23     6     1   ar
    24    21    11   ar
    25    21    15   ar
    26    23    24    1
    27     9    10    1
    28     7     8    1
@<TRIPOS>MOLECULE
*****
 26 28 0 0 0
SMALL
GASTEIGER

@<TRIPOS>ATOM
      1 C         143.9462  141.7094  162.5723 C.ar    1  UNL1        0.0286
      2 C         142.5824  141.1110  162.7508 C.ar    1  UNL1        0.0147
      3 C         142.3876  139.9535  163.6848 C.ar    1  UNL1        0.0482
      4 C         143.5567  139.3944  164.4403 C.ar    1  UNL1        0.0177
      5 C         144.9205  139.9928  164.2617 C.ar    1  UNL1        0.0376
      6 C         145.1152  141.1503  163.3277 C.ar    1  UNL1        0.1310
      7 O         146.4791  141.7488  163.1492 O.3     1  UNL1       -0.5058
      8 H         147.2094  141.3995  163.6211 H       1  UNL1        0.2922
      9 N         141.0238  139.3551  163.8633 N.pl3   1  UNL1       -0.3125
     10 H         140.9253  138.4719  164.2869 H       1  UNL1        0.1522
     11 C         139.8098  140.1025  163.3964 C.ar    1  UNL1        0.0513
     12 C         138.9764  139.5543  162.2762 C.ar    1  UNL1        0.0353
     13 C         137.7626  140.3016  161.8094 C.ar    1  UNL1        0.1001
     14 N         137.3821  141.5972  162.4627 N.ar    1  UNL1       -0.2437
     15 C         138.2156  142.1454  163.5829 C.ar    1  UNL1        0.0833
     16 C         137.8351  143.4409  164.2362 C.ar    1  UNL1        0.0305
     17 C         138.6686  143.9891  165.3564 C.ar    1  UNL1        0.0592
     18 CL        138.2881  145.2847  166.0097 Cl      1  UNL1       -0.0822
     19 C         139.8825  143.2418  165.8233 C.ar    1  UNL1        0.0115
     20 C         140.2629  141.9462  165.1700 C.ar    1  UNL1        0.0036
     21 C         139.4294  141.3980  164.0497 C.ar    1  UNL1        0.0312
     22 C         144.1409  142.8669  161.6383 C.3     1  UNL1        0.0987
     23 N         144.6232  144.1849  162.1677 N.3     1  UNL1       -0.2937
     24 H         145.5829  144.0425  162.4822 H       1  UNL1        0.1236
     25 C         142.3949  144.9319  163.2755 C.3     1  UNL1        0.0185
     26 C         143.8928  144.8530  163.2947 C.3     1  UNL1        0.0689
@<TRIPOS>BOND
     1    25    26    1
     2    26    23    1
     3    23    22    1
     4    22     1    1
     5     1     2   ar
     6     2     3   ar
     7     3     9    1
     8     9    11    1
     9    11    12   ar
    10    12    13   ar
    11    13    14   ar
    12    14    15   ar
    13    15    16   ar
    14    16    17   ar
    15    17    18    1
    16    17    19   ar
    17    19    20   ar
    18    20    21   ar
    19     3     4   ar
    20     4     5   ar
    21     5     6   ar
    22     6     7    1
    23     6     1   ar
    24    21    11   ar
    25    21    15   ar
    26    23    24    1
    27     9    10    1
    28     7     8    1
@<TRIPOS>MOLECULE
*****
 26 28 0 0 0
SMALL
GASTEIGER

@<TRIPOS>ATOM
      1 C         140.4664  143.8278  162.5343 C.ar    1  UNL1        0.0286
      2 C         140.9858  142.4860  162.9582 C.ar    1  UNL1        0.0147
      3 C         142.2428  142.3910  163.7712 C.ar    1  UNL1        0.0482
      4 C         142.9803  143.6378  164.1604 C.ar    1  UNL1        0.0177
      5 C         142.4609  144.9797  163.7365 C.ar    1  UNL1        0.0376
      6 C         141.2039  145.0746  162.9234 C.ar    1  UNL1        0.1310
      7 O         140.6845  146.4165  162.4995 O.3     1  UNL1       -0.5058
      8 H         141.1452  147.1953  162.7426 H       1  UNL1        0.2922
      9 N         142.7622  141.0491  164.1951 N.pl3   1  UNL1       -0.3125
     10 H         143.5899  140.9865  164.7244 H       1  UNL1        0.1522
     11 C         142.0203  139.8027  163.8126 C.ar    1  UNL1        0.0513
     12 C         142.4522  139.0109  162.6141 C.ar    1  UNL1        0.0353
     13 C         141.7104  137.7646  162.2316 C.ar    1  UNL1        0.1001
     14 N         140.5367  137.3101  163.0476 N.ar    1  UNL1       -0.2437
     15 C         140.1048  138.1019  164.2461 C.ar    1  UNL1        0.0833
     16 C         138.9311  137.6474  165.0621 C.ar    1  UNL1        0.0305
     17 C         138.4992  138.4393  166.2606 C.ar    1  UNL1        0.0592
     18 CL        137.3255  137.9848  167.0766 Cl      1  UNL1       -0.0822
     19 C         139.2411  139.6857  166.6431 C.ar    1  UNL1        0.0115
     20 C         140.4148  140.1402  165.8271 C.ar    1  UNL1        0.0036
     21 C         140.8466  139.3482  164.6286 C.ar    1  UNL1        0.0312
     22 C         139.2094  143.9228  161.7212 C.3     1  UNL1        0.0987
     23 N         137.9415  144.4131  162.3550 N.3     1  UNL1       -0.2937
     24 H         137.9262  145.4262  162.2375 H       1  UNL1        0.1236
     25 C         137.5719  142.7279  164.2976 C.3     1  UNL1        0.0185
     26 C         137.6744  144.1414  163.8058 C.3     1  UNL1        0.0689
@<TRIPOS>BOND
     1    25    26    1
     2    26    23    1
     3    23    22    1
     4    22     1    1
     5     1     2   ar
     6     2     3   ar
     7     3     9    1
     8     9    11    1
     9    11    12   ar
    10    12    13   ar
    11    13    14   ar
    12    14    15   ar
    13    15    16   ar
    14    16    17   ar
    15    17    18    1
    16    17    19   ar
    17    19    20   ar
    18    20    21   ar
    19     3     4   ar
    20     4     5   ar
    21     5     6   ar
    22     6     7    1
    23     6     1   ar
    24    21    11   ar
    25    21    15   ar
    26    23    24    1
    27     9    10    1
    28     7     8    1
@<TRIPOS>MOLECULE
*****
 26 28 0 0 0
SMALL
GASTEIGER

@<TRIPOS>ATOM
      1 C         138.8650  143.2548  164.3052 C.ar    1  UNL1        0.0286
      2 C         139.2281  142.0028  165.0472 C.ar    1  UNL1        0.0147
      3 C         138.6370  140.6877  164.6336 C.ar    1  UNL1        0.0482
      4 C         137.6829  140.6246  163.4778 C.ar    1  UNL1        0.0177
      5 C         137.3198  141.8766  162.7358 C.ar    1  UNL1        0.0376
      6 C         137.9110  143.1918  163.1495 C.ar    1  UNL1        0.1310
      7 O         137.5479  144.4438  162.4074 O.3     1  UNL1       -0.5058
      8 H         136.9519  144.4044  161.6855 H       1  UNL1        0.2922
      9 N         139.0000  139.4357  165.3756 N.pl3   1  UNL1       -0.3125
     10 H         138.3208  138.7397  165.5286 H       1  UNL1        0.1522
     11 C         140.3981  139.2441  165.8845 C.ar    1  UNL1        0.0513
     12 C         141.4329  138.6005  165.0101 C.ar    1  UNL1        0.0353
     13 C         142.8309  138.4089  165.5190 C.ar    1  UNL1        0.1001
     14 N         143.1939  138.8610  166.9024 N.ar    1  UNL1       -0.2437
     15 C         142.1591  139.5047  167.7769 C.ar    1  UNL1        0.0833
     16 C         142.5221  139.9568  169.1603 C.ar    1  UNL1        0.0305
     17 C         141.4872  140.6004  170.0347 C.ar    1  UNL1        0.0592
     18 CL        141.8503  141.0525  171.4181 Cl      1  UNL1       -0.0822
     19 C         140.0892  140.7919  169.5258 C.ar    1  UNL1        0.0115
     20 C         139.7262  140.3399  168.1424 C.ar    1  UNL1        0.0036
     21 C         140.7611  139.6962  167.2679 C.ar    1  UNL1        0.0312
     22 C         139.4562  144.5699  164.7189 C.3     1  UNL1        0.0987
     23 N         140.0537  145.4811  163.6881 N.3     1  UNL1       -0.2937
     24 H         139.5243  145.3397  162.8277 H       1  UNL1        0.1236
     25 C         142.3897  144.4191  164.0944 C.3     1  UNL1        0.0185
     26 C         141.5048  145.3577  163.3289 C.3     1  UNL1        0.0689
@<TRIPOS>BOND
     1    25    26    1
     2    26    23    1
     3    23    22    1
     4    22     1    1
     5     1     2   ar
     6     2     3   ar
     7     3     9    1
     8     9    11    1
     9    11    12   ar
    10    12    13   ar
    11    13    14   ar
    12    14    15   ar
    13    15    16   ar
    14    16    17   ar
    15    17    18    1
    16    17    19   ar
    17    19    20   ar
    18    20    21   ar
    19     3     4   ar
    20     4     5   ar
    21     5     6   ar
    22     6     7    1
    23     6     1   ar
    24    21    11   ar
    25    21    15   ar
    26    23    24    1
    27     9    10    1
    28     7     8    1
@<TRIPOS>MOLECULE
*****
 26 28 0 0 0
SMALL
GASTEIGER

@<TRIPOS>ATOM
      1 C         140.3908  140.0260  168.9469 C.ar    1  UNL1        0.0286
      2 C         139.2174  139.9458  168.0159 C.ar    1  UNL1        0.0147
      3 C         139.4399  139.8035  166.5393 C.ar    1  UNL1        0.0482
      4 C         140.8359  139.7414  165.9937 C.ar    1  UNL1        0.0177
      5 C         142.0092  139.8216  166.9248 C.ar    1  UNL1        0.0376
      6 C         141.7866  139.9639  168.4014 C.ar    1  UNL1        0.1310
      7 O         142.9600  140.0441  169.3324 O.3     1  UNL1       -0.5058
      8 H         143.8320  140.0054  168.9916 H       1  UNL1        0.2922
      9 N         138.2666  139.7233  165.6083 N.pl3   1  UNL1       -0.3125
     10 H         137.5360  139.0891  165.7906 H       1  UNL1        0.1522
     11 C         138.2064  140.6094  164.3995 C.ar    1  UNL1        0.0513
     12 C         137.8033  142.0471  164.5428 C.ar    1  UNL1        0.0353
     13 C         137.7431  142.9332  163.3340 C.ar    1  UNL1        0.1001
     14 N         138.0860  142.3816  161.9819 N.ar    1  UNL1       -0.2437
     15 C         138.4890  140.9439  161.8386 C.ar    1  UNL1        0.0833
     16 C         138.8319  140.3923  160.4865 C.ar    1  UNL1        0.0305
     17 C         139.2350  138.9546  160.3432 C.ar    1  UNL1        0.0592
     18 CL        139.5778  138.4030  158.9911 Cl      1  UNL1       -0.0822
     19 C         139.2952  138.0684  161.5520 C.ar    1  UNL1        0.0115
     20 C         138.9523  138.6200  162.9041 C.ar    1  UNL1        0.0036
     21 C         138.5492  140.0578  163.0474 C.ar    1  UNL1        0.0312
     22 C         140.1682  140.1683  170.4235 C.3     1  UNL1        0.0987
     23 N         140.4642  141.4716  171.1044 N.3     1  UNL1       -0.2937
     24 H         140.1928  141.3616  172.0815 H       1  UNL1        0.1236
     25 C         140.5699  143.6489  169.6908 C.3     1  UNL1        0.0185
     26 C         139.8214  142.7358  170.6161 C.3     1  UNL1        0.0689
@<TRIPOS>BOND
     1    25    26    1
     2    26    23    1
     3    23    22    1
     4    22     1    1
     5     1     2   ar
     6     2     3   ar
     7     3     9    1
     8     9    11    1
     9    11    12   ar
    10    12    13   ar
    11    13    14   ar
    12    14    15   ar
    13    15    16   ar
    14    16    17   ar
    15    17    18    1
    16    17    19   ar
    17    19    20   ar
    18    20    21   ar
    19     3     4   ar
    20     4     5   ar
    21     5     6   ar
    22     6     7    1
    23     6     1   ar
    24    21    11   ar
    25    21    15   ar
    26    23    24    1
    27     9    10    1
    28     7     8    1
@<TRIPOS>MOLECULE
*****
 26 28 0 0 0
SMALL
GASTEIGER

@<TRIPOS>ATOM
      1 C         141.8136  139.5425  169.3893 C.ar    1  UNL1        0.0286
      2 C         142.2149  139.8157  167.9701 C.ar    1  UNL1        0.0147
      3 C         141.2332  140.4327  167.0186 C.ar    1  UNL1        0.0482
      4 C         139.8500  140.7765  167.4863 C.ar    1  UNL1        0.0177
      5 C         139.4486  140.5032  168.9055 C.ar    1  UNL1        0.0376
      6 C         140.4305  139.8862  169.8570 C.ar    1  UNL1        0.1310
      7 O         140.0291  139.6129  171.2763 O.3     1  UNL1       -0.5058
      8 H         139.1651  139.8276  171.5684 H       1  UNL1        0.2922
      9 N         141.6345  140.7060  165.5993 N.pl3   1  UNL1       -0.3125
     10 H         141.4210  140.0541  164.8931 H       1  UNL1        0.1522
     11 C         142.3612  141.9726  165.2560 C.ar    1  UNL1        0.0513
     12 C         143.7693  142.1812  165.7290 C.ar    1  UNL1        0.0353
     13 C         144.4959  143.4477  165.3857 C.ar    1  UNL1        0.1001
     14 N         143.8144  144.5057  164.5695 N.ar    1  UNL1       -0.2437
     15 C         142.4063  144.2971  164.0965 C.ar    1  UNL1        0.0833
     16 C         141.7248  145.3551  163.2803 C.ar    1  UNL1        0.0305
     17 C         140.3167  145.1466  162.8073 C.ar    1  UNL1        0.0592
     18 CL        139.6353  146.2046  161.9911 Cl      1  UNL1       -0.0822
     19 C         139.5901  143.8800  163.1506 C.ar    1  UNL1        0.0115
     20 C         140.2715  142.8220  163.9668 C.ar    1  UNL1        0.0036
     21 C         141.6797  143.0306  164.4398 C.ar    1  UNL1        0.0312
     22 C         142.7954  138.9254  170.3408 C.3     1  UNL1        0.0987
     23 N         143.4183  137.5991  170.0203 N.3     1  UNL1       -0.2937
     24 H         142.7183  137.0607  169.5100 H       1  UNL1        0.1236
     25 C         144.9938  135.7085  170.8531 C.3     1  UNL1        0.0185
     26 C         143.9195  136.7190  171.1267 C.3     1  UNL1        0.0689
@<TRIPOS>BOND
     1    25    26    1
     2    26    23    1
     3    23    22    1
     4    22     1    1
     5     1     2   ar
     6     2     3   ar
     7     3     9    1
     8     9    11    1
     9    11    12   ar
    10    12    13   ar
    11    13    14   ar
    12    14    15   ar
    13    15    16   ar
    14    16    17   ar
    15    17    18    1
    16    17    19   ar
    17    19    20   ar
    18    20    21   ar
    19     3     4   ar
    20     4     5   ar
    21     5     6   ar
    22     6     7    1
    23     6     1   ar
    24    21    11   ar
    25    21    15   ar
    26    23    24    1
    27     9    10    1
    28     7     8    1
@<TRIPOS>MOLECULE
*****
 26 28 0 0 0
SMALL
GASTEIGER

@<TRIPOS>ATOM
      1 C         142.3811  143.9865  163.6959 C.ar    1  UNL1        0.0286
      2 C         141.9296  142.6136  164.0976 C.ar    1  UNL1        0.0147
      3 C         142.8121  141.4285  163.8398 C.ar    1  UNL1        0.0482
      4 C         144.1462  141.6162  163.1801 C.ar    1  UNL1        0.0177
      5 C         144.5977  142.9891  162.7784 C.ar    1  UNL1        0.0376
      6 C         143.7151  144.1742  163.0363 C.ar    1  UNL1        0.1310
      7 O         144.1666  145.5471  162.6346 O.3     1  UNL1       -0.5058
      8 H         144.9999  145.6644  162.2226 H       1  UNL1        0.2922
      9 N         142.3606  140.0556  164.2415 N.pl3   1  UNL1       -0.3125
     10 H         142.9668  139.2872  164.1349 H       1  UNL1        0.1522
     11 C         140.9854  139.8534  164.8055 C.ar    1  UNL1        0.0513
     12 C         139.8302  139.5850  163.8872 C.ar    1  UNL1        0.0353
     13 C         138.4551  139.3828  164.4513 C.ar    1  UNL1        0.1001
     14 N         138.2352  139.4492  165.9336 N.ar    1  UNL1       -0.2437
     15 C         139.3905  139.7176  166.8519 C.ar    1  UNL1        0.0833
     16 C         139.1706  139.7839  168.3342 C.ar    1  UNL1        0.0305
     17 C         140.3259  140.0524  169.2525 C.ar    1  UNL1        0.0592
     18 CL        140.1060  140.1187  170.7348 Cl      1  UNL1       -0.0822
     19 C         141.7011  140.2546  168.6884 C.ar    1  UNL1        0.0115
     20 C         141.9209  140.1882  167.2061 C.ar    1  UNL1        0.0036
     21 C         140.7656  139.9198  166.2878 C.ar    1  UNL1        0.0312
     22 C         141.4984  145.1717  163.9539 C.3     1  UNL1        0.0987
     23 N         141.0564  146.0399  162.8134 N.3     1  UNL1       -0.2937
     24 H         140.9844  146.9900  163.1774 H       1  UNL1        0.1236
     25 C         138.7332  144.8781  162.7567 C.3     1  UNL1        0.0185
     26 C         139.7667  145.7486  162.1052 C.3     1  UNL1        0.0689
@<TRIPOS>BOND
     1    25    26    1
     2    26    23    1
     3    23    22    1
     4    22     1    1
     5     1     2   ar
     6     2     3   ar
     7     3     9    1
     8     9    11    1
     9    11    12   ar
    10    12    13   ar
    11    13    14   ar
    12    14    15   ar
    13    15    16   ar
    14    16    17   ar
    15    17    18    1
    16    17    19   ar
    17    19    20   ar
    18    20    21   ar
    19     3     4   ar
    20     4     5   ar
    21     5     6   ar
    22     6     7    1
    23     6     1   ar
    24    21    11   ar
    25    21    15   ar
    26    23    24    1
    27     9    10    1
    28     7     8    1
