@<TRIPOS>MOLECULE
*****
 31 34 0 0 0
SMALL
GASTEIGER

@<TRIPOS>ATOM
      1 N         141.1881  138.4380  159.9949 N.3     1  UNL1       -0.2688
      2 C         141.9944  138.0359  161.1942 C.3     1  UNL1        0.0741
      3 C         141.3250  137.8681  162.5260 C.3     1  UNL1        0.0370
      4 C         139.8493  138.1022  162.6585 C.3     1  UNL1        0.0760
      5 C         139.0431  138.5043  161.4592 C.3     1  UNL1        0.0370
      6 C         139.7125  138.6721  160.1274 C.3     1  UNL1        0.0741
      7 N         139.1799  137.9344  163.9903 N.pl3   1  UNL1       -0.2899
      8 H         138.5692  137.1773  164.1423 H       1  UNL1        0.1511
      9 C         139.4410  138.9200  165.0905 C.ar    1  UNL1        0.2890
     10 N         140.0287  140.2902  164.9257 N.ar    1  UNL1       -0.1948
     11 C         140.1111  140.9255  166.2820 C.ar    1  UNL1        0.1202
     12 C         140.6056  142.2678  166.7332 C.ar    1  UNL1        0.0224
     13 C         140.5633  142.6326  168.1875 C.ar    1  UNL1        0.0029
     14 C         140.0264  141.6551  169.1906 C.ar    1  UNL1        0.0171
     15 C         139.5320  140.3127  168.7394 C.ar    1  UNL1        0.0403
     16 C         139.5743  139.9480  167.2851 C.ar    1  UNL1        0.1660
     17 O         139.1601  138.7085  166.5487 O.2     1  UNL1       -0.4239
     18 C         139.9841  142.0199  170.6450 C.2     1  UNL1        0.0730
     19 O         140.6421  141.1331  171.6601 O.co2   1  UNL1       -0.5446
     20 O         139.2838  143.2715  171.0842 O.co2   1  UNL1       -0.5446
     21 C         141.8576  138.6058  158.6630 C.3     1  UNL1        0.0992
     22 C         142.8244  135.3584  156.5970 C.ar    1  UNL1        0.1487
     23 C         142.8821  136.4631  157.6099 C.ar    1  UNL1        0.0349
     24 C         141.7999  137.5011  157.6501 C.ar    1  UNL1       -0.0031
     25 C         140.6601  137.4342  156.6774 C.ar    1  UNL1       -0.0019
     26 C         140.6024  136.3294  155.6643 C.ar    1  UNL1        0.0142
     27 C         141.6845  135.2915  155.6241 C.ar    1  UNL1        0.0915
     28 CL        141.6269  134.1867  154.6112 Cl      1  UNL1       -0.0791
     29 O         143.9066  134.3204  156.5568 O.3     1  UNL1       -0.4746
     30 C         145.0213  132.2971  157.7457 C.3     1  UNL1        0.0512
     31 C         143.7926  133.0851  157.3999 C.3     1  UNL1        0.2056
@<TRIPOS>UNITY_ATOM_ATTR
19 1
charge -1
@<TRIPOS>BOND
     1    30    31    1
     2    31    29    1
     3    29    22    1
     4    22    23   ar
     5    23    24   ar
     6    24    21    1
     7    21     1    1
     8     1     2    1
     9     2     3    1
    10     3     4    1
    11     4     7    1
    12     7     9    1
    13     9    10   ar
    14    10    11   ar
    15    11    12   ar
    16    12    13   ar
    17    13    14   ar
    18    14    18    1
    19    18    19   ar
    20    18    20   ar
    21    14    15   ar
    22    15    16   ar
    23    16    17   ar
    24     4     5    1
    25     5     6    1
    26    24    25   ar
    27    25    26   ar
    28    26    27   ar
    29    27    28    1
    30    27    22   ar
    31     6     1    1
    32    17     9   ar
    33    16    11   ar
    34     7     8    1
@<TRIPOS>MOLECULE
*****
 31 34 0 0 0
SMALL
GASTEIGER

@<TRIPOS>ATOM
      1 N         138.4809  139.9040  160.3186 N.3     1  UNL1       -0.2688
      2 C         138.2280  140.3621  158.9128 C.3     1  UNL1        0.0741
      3 C         139.2049  140.0228  157.8262 C.3     1  UNL1        0.0370
      4 C         140.4347  139.2254  158.1454 C.3     1  UNL1        0.0760
      5 C         140.6875  138.7673  159.5513 C.3     1  UNL1        0.0370
      6 C         139.7106  139.1066  160.6378 C.3     1  UNL1        0.0741
      7 N         141.4115  138.8861  157.0589 N.pl3   1  UNL1       -0.2899
      8 H         141.7990  139.6014  156.5044 H       1  UNL1        0.1511
      9 C         141.7980  137.4571  156.8173 C.ar    1  UNL1        0.2890
     10 N         141.0757  136.4860  155.9311 N.ar    1  UNL1       -0.1948
     11 C         141.8059  135.1769  155.9855 C.ar    1  UNL1        0.1202
     12 C         141.5538  133.8584  155.3164 C.ar    1  UNL1        0.0224
     13 C         142.4754  132.7018  155.5670 C.ar    1  UNL1        0.0029
     14 C         143.6492  132.8637  156.4868 C.ar    1  UNL1        0.0171
     15 C         143.9013  134.1823  157.1560 C.ar    1  UNL1        0.0403
     16 C         142.9797  135.3389  156.9054 C.ar    1  UNL1        0.1660
     17 O         142.9748  136.7481  157.4194 O.2     1  UNL1       -0.4239
     18 C         144.5708  131.7071  156.7375 C.2     1  UNL1        0.0730
     19 O         144.8873  131.2913  158.1435 O.co2   1  UNL1       -0.5446
     20 O         145.1758  130.9662  155.5821 O.co2   1  UNL1       -0.5446
     21 C         137.5040  140.2433  161.4052 C.3     1  UNL1        0.0992
     22 C         138.2414  143.9087  162.7360 C.ar    1  UNL1        0.1487
     23 C         137.9577  142.7707  161.8009 C.ar    1  UNL1        0.0349
     24 C         137.7877  141.3813  162.3402 C.ar    1  UNL1       -0.0031
     25 C         137.9015  141.1300  163.8146 C.ar    1  UNL1       -0.0019
     26 C         138.1852  142.2680  164.7498 C.ar    1  UNL1        0.0142
     27 C         138.3552  143.6574  164.2105 C.ar    1  UNL1        0.0915
     28 CL        138.6389  144.7954  165.1456 Cl      1  UNL1       -0.0791
     29 O         138.4114  145.2980  162.1967 O.3     1  UNL1       -0.4746
     30 C         141.0004  145.1415  162.3477 C.3     1  UNL1        0.0512
     31 C         139.7686  145.7782  161.7755 C.3     1  UNL1        0.2056
@<TRIPOS>UNITY_ATOM_ATTR
19 1
charge -1
@<TRIPOS>BOND
     1    30    31    1
     2    31    29    1
     3    29    22    1
     4    22    23   ar
     5    23    24   ar
     6    24    21    1
     7    21     1    1
     8     1     2    1
     9     2     3    1
    10     3     4    1
    11     4     7    1
    12     7     9    1
    13     9    10   ar
    14    10    11   ar
    15    11    12   ar
    16    12    13   ar
    17    13    14   ar
    18    14    18    1
    19    18    19   ar
    20    18    20   ar
    21    14    15   ar
    22    15    16   ar
    23    16    17   ar
    24     4     5    1
    25     5     6    1
    26    24    25   ar
    27    25    26   ar
    28    26    27   ar
    29    27    28    1
    30    27    22   ar
    31     6     1    1
    32    17     9   ar
    33    16    11   ar
    34     7     8    1
@<TRIPOS>MOLECULE
*****
 31 34 0 0 0
SMALL
GASTEIGER

@<TRIPOS>ATOM
      1 N         138.3277  140.0715  160.6662 N.3     1  UNL1       -0.2688
      2 C         137.6746  140.6603  161.8814 C.3     1  UNL1        0.0741
      3 C         137.9097  140.0477  163.2303 C.3     1  UNL1        0.0370
      4 C         138.7980  138.8464  163.3639 C.3     1  UNL1        0.0760
      5 C         139.4511  138.2577  162.1486 C.3     1  UNL1        0.0370
      6 C         139.2159  138.8702  160.7998 C.3     1  UNL1        0.0741
      7 N         139.0332  138.2339  164.7128 N.pl3   1  UNL1       -0.2899
      8 H         139.0443  137.2546  164.8135 H       1  UNL1        0.1511
      9 C         139.2513  139.1133  165.9082 C.ar    1  UNL1        0.2890
     10 N         138.7237  138.8686  167.2908 N.ar    1  UNL1       -0.1948
     11 C         139.1816  139.9959  168.1680 C.ar    1  UNL1        0.1202
     12 C         138.9652  140.2868  169.6235 C.ar    1  UNL1        0.0224
     13 C         139.5594  141.5191  170.2385 C.ar    1  UNL1        0.0029
     14 C         140.3701  142.4606  169.3979 C.ar    1  UNL1        0.0171
     15 C         140.5865  142.1697  167.9424 C.ar    1  UNL1        0.0403
     16 C         139.9923  140.9374  167.3275 C.ar    1  UNL1        0.1660
     17 O         140.0353  140.3919  165.9309 O.2     1  UNL1       -0.4239
     18 C         140.9643  143.6930  170.0130 C.2     1  UNL1        0.0730
     19 O         142.4281  143.7380  170.3376 O.co2   1  UNL1       -0.5446
     20 O         140.0948  144.8802  170.3033 O.co2   1  UNL1       -0.5446
     21 C         138.0925  140.6841  159.3172 C.3     1  UNL1        0.0992
     22 C         140.4535  143.8682  159.5094 C.ar    1  UNL1        0.1487
     23 C         139.7076  142.6304  159.9114 C.ar    1  UNL1        0.0349
     24 C         138.8384  141.9218  158.9152 C.ar    1  UNL1       -0.0031
     25 C         138.7150  142.4509  157.5171 C.ar    1  UNL1       -0.0019
     26 C         139.4609  143.6887  157.1151 C.ar    1  UNL1        0.0142
     27 C         140.3302  144.3974  158.1112 C.ar    1  UNL1        0.0915
     28 CL        141.0760  145.6351  157.7092 Cl      1  UNL1       -0.0791
     29 O         141.3227  144.5768  160.5056 O.3     1  UNL1       -0.4746
     30 C         139.7764  145.9909  162.0415 C.3     1  UNL1        0.0512
     31 C         140.7903  144.8988  161.8704 C.3     1  UNL1        0.2056
@<TRIPOS>UNITY_ATOM_ATTR
19 1
charge -1
@<TRIPOS>BOND
     1    30    31    1
     2    31    29    1
     3    29    22    1
     4    22    23   ar
     5    23    24   ar
     6    24    21    1
     7    21     1    1
     8     1     2    1
     9     2     3    1
    10     3     4    1
    11     4     7    1
    12     7     9    1
    13     9    10   ar
    14    10    11   ar
    15    11    12   ar
    16    12    13   ar
    17    13    14   ar
    18    14    18    1
    19    18    19   ar
    20    18    20   ar
    21    14    15   ar
    22    15    16   ar
    23    16    17   ar
    24     4     5    1
    25     5     6    1
    26    24    25   ar
    27    25    26   ar
    28    26    27   ar
    29    27    28    1
    30    27    22   ar
    31     6     1    1
    32    17     9   ar
    33    16    11   ar
    34     7     8    1
@<TRIPOS>MOLECULE
*****
 31 34 0 0 0
SMALL
GASTEIGER

@<TRIPOS>ATOM
      1 N         139.4040  138.9858  159.9863 N.3     1  UNL1       -0.2688
      2 C         140.5047  138.3211  160.7586 C.3     1  UNL1        0.0741
      3 C         140.3063  137.9822  162.2064 C.3     1  UNL1        0.0370
      4 C         139.0072  138.3080  162.8817 C.3     1  UNL1        0.0760
      5 C         137.9064  138.9728  162.1092 C.3     1  UNL1        0.0370
      6 C         138.1049  139.3117  160.6616 C.3     1  UNL1        0.0741
      7 N         138.8087  137.9692  164.3293 N.pl3   1  UNL1       -0.2899
      8 H         138.4436  137.0910  164.5837 H       1  UNL1        0.1511
      9 C         139.1665  138.9683  165.3894 C.ar    1  UNL1        0.2890
     10 N         139.8839  140.2673  165.1705 N.ar    1  UNL1       -0.1948
     11 C         140.0305  140.9458  166.5002 C.ar    1  UNL1        0.1202
     12 C         140.6537  142.2509  166.8979 C.ar    1  UNL1        0.0224
     13 C         140.6501  142.6763  168.3362 C.ar    1  UNL1        0.0029
     14 C         140.0233  141.7966  169.3770 C.ar    1  UNL1        0.0171
     15 C         139.4000  140.4914  168.9794 C.ar    1  UNL1        0.0403
     16 C         139.4036  140.0660  167.5410 C.ar    1  UNL1        0.1660
     17 O         138.8697  138.8439  166.8544 O.2     1  UNL1       -0.4239
     18 C         140.0197  142.2220  170.8154 C.2     1  UNL1        0.0730
     19 O         139.2142  143.4128  171.2433 O.co2   1  UNL1       -0.5446
     20 O         140.8217  141.4567  171.8259 O.co2   1  UNL1       -0.5446
     21 C         139.6025  139.3247  158.5385 C.3     1  UNL1        0.0992
     22 C         143.2328  138.8452  157.0087 C.ar    1  UNL1        0.1487
     23 C         142.0806  139.4356  157.7661 C.ar    1  UNL1        0.0349
     24 C         140.7547  138.7343  157.7812 C.ar    1  UNL1       -0.0031
     25 C         140.5811  137.4425  157.0388 C.ar    1  UNL1       -0.0019
     26 C         141.7333  136.8520  156.2814 C.ar    1  UNL1        0.0142
     27 C         143.0592  137.5533  156.2663 C.ar    1  UNL1        0.0915
     28 CL        144.2114  136.9629  155.5089 Cl      1  UNL1       -0.0791
     29 O         144.5586  139.5465  156.9936 O.3     1  UNL1       -0.4746
     30 C         143.8604  140.9161  154.8992 C.3     1  UNL1        0.0512
     31 C         144.7894  140.6942  156.0559 C.3     1  UNL1        0.2056
@<TRIPOS>UNITY_ATOM_ATTR
19 1
charge -1
@<TRIPOS>BOND
     1    30    31    1
     2    31    29    1
     3    29    22    1
     4    22    23   ar
     5    23    24   ar
     6    24    21    1
     7    21     1    1
     8     1     2    1
     9     2     3    1
    10     3     4    1
    11     4     7    1
    12     7     9    1
    13     9    10   ar
    14    10    11   ar
    15    11    12   ar
    16    12    13   ar
    17    13    14   ar
    18    14    18    1
    19    18    19   ar
    20    18    20   ar
    21    14    15   ar
    22    15    16   ar
    23    16    17   ar
    24     4     5    1
    25     5     6    1
    26    24    25   ar
    27    25    26   ar
    28    26    27   ar
    29    27    28    1
    30    27    22   ar
    31     6     1    1
    32    17     9   ar
    33    16    11   ar
    34     7     8    1
@<TRIPOS>MOLECULE
*****
 31 34 0 0 0
SMALL
GASTEIGER

@<TRIPOS>ATOM
      1 N         139.3366  139.0888  159.9345 N.3     1  UNL1       -0.2688
      2 C         140.3335  138.2492  160.6769 C.3     1  UNL1        0.0741
      3 C         140.1075  137.9192  162.1226 C.3     1  UNL1        0.0370
      4 C         138.8846  138.4288  162.8259 C.3     1  UNL1        0.0760
      5 C         137.8876  139.2685  162.0835 C.3     1  UNL1        0.0370
      6 C         138.1136  139.5985  160.6379 C.3     1  UNL1        0.0741
      7 N         138.6585  138.0988  164.2716 N.pl3   1  UNL1       -0.2899
      8 H         138.2413  137.2429  164.5217 H       1  UNL1        0.1511
      9 C         139.0682  139.0729  165.3362 C.ar    1  UNL1        0.2890
     10 N         139.6872  140.4200  165.1077 N.ar    1  UNL1       -0.1948
     11 C         139.9324  141.0506  166.4465 C.ar    1  UNL1        0.1202
     12 C         140.5208  142.3729  166.8404 C.ar    1  UNL1        0.0224
     13 C         140.6419  142.7377  168.2903 C.ar    1  UNL1        0.0029
     14 C         140.1745  141.7803  169.3462 C.ar    1  UNL1        0.0171
     15 C         139.5860  140.4581  168.9522 C.ar    1  UNL1        0.0403
     16 C         139.4649  140.0932  167.5024 C.ar    1  UNL1        0.1660
     17 O         138.9309  138.8710  166.8161 O.2     1  UNL1       -0.4239
     18 C         140.2956  142.1453  170.7961 C.2     1  UNL1        0.0730
     19 O         139.3519  143.1429  171.3998 O.co2   1  UNL1       -0.5446
     20 O         141.3602  141.5126  171.6424 O.co2   1  UNL1       -0.5446
     21 C         139.5625  139.4189  158.4888 C.3     1  UNL1        0.0992
     22 C         141.6751  136.8111  156.3707 C.ar    1  UNL1        0.1487
     23 C         140.5341  137.4400  157.1140 C.ar    1  UNL1        0.0349
     24 C         140.7035  138.7900  157.7454 C.ar    1  UNL1       -0.0031
     25 C         142.0140  139.5113  157.6334 C.ar    1  UNL1       -0.0019
     26 C         143.1551  138.8824  156.8900 C.ar    1  UNL1        0.0142
     27 C         142.9856  137.5324  156.2587 C.ar    1  UNL1        0.0915
     28 CL        144.1266  136.9036  155.5153 Cl      1  UNL1       -0.0791
     29 O         141.5057  135.4611  155.7393 O.3     1  UNL1       -0.4746
     30 C         141.5338  134.1685  153.4858 C.3     1  UNL1        0.0512
     31 C         141.1008  135.3521  154.2992 C.3     1  UNL1        0.2056
@<TRIPOS>UNITY_ATOM_ATTR
19 1
charge -1
@<TRIPOS>BOND
     1    30    31    1
     2    31    29    1
     3    29    22    1
     4    22    23   ar
     5    23    24   ar
     6    24    21    1
     7    21     1    1
     8     1     2    1
     9     2     3    1
    10     3     4    1
    11     4     7    1
    12     7     9    1
    13     9    10   ar
    14    10    11   ar
    15    11    12   ar
    16    12    13   ar
    17    13    14   ar
    18    14    18    1
    19    18    19   ar
    20    18    20   ar
    21    14    15   ar
    22    15    16   ar
    23    16    17   ar
    24     4     5    1
    25     5     6    1
    26    24    25   ar
    27    25    26   ar
    28    26    27   ar
    29    27    28    1
    30    27    22   ar
    31     6     1    1
    32    17     9   ar
    33    16    11   ar
    34     7     8    1
@<TRIPOS>MOLECULE
*****
 31 34 0 0 0
SMALL
GASTEIGER

@<TRIPOS>ATOM
      1 N         138.9101  139.7881  159.8108 N.3     1  UNL1       -0.2688
      2 C         137.7539  140.0887  160.7178 C.3     1  UNL1        0.0741
      3 C         137.7510  139.5713  162.1258 C.3     1  UNL1        0.0370
      4 C         138.9043  138.7535  162.6267 C.3     1  UNL1        0.0760
      5 C         140.0606  138.4529  161.7196 C.3     1  UNL1        0.0370
      6 C         140.0635  138.9702  160.3117 C.3     1  UNL1        0.0741
      7 N         138.9014  138.2362  164.0347 N.pl3   1  UNL1       -0.2899
      8 H         138.6778  137.2940  164.2125 H       1  UNL1        0.1511
      9 C         139.2391  139.1543  165.1718 C.ar    1  UNL1        0.2890
     10 N         139.9039  140.4939  165.0557 N.ar    1  UNL1       -0.1948
     11 C         140.0470  141.0616  166.4368 C.ar    1  UNL1        0.1202
     12 C         140.6277  142.3511  166.9367 C.ar    1  UNL1        0.0224
     13 C         140.6319  142.6518  168.4062 C.ar    1  UNL1        0.0029
     14 C         140.0555  141.6630  169.3758 C.ar    1  UNL1        0.0171
     15 C         139.4748  140.3736  168.8759 C.ar    1  UNL1        0.0403
     16 C         139.4706  140.0728  167.4064 C.ar    1  UNL1        0.1660
     17 O         138.9713  138.8941  166.6245 O.2     1  UNL1       -0.4239
     18 C         140.0598  141.9638  170.8454 C.2     1  UNL1        0.0730
     19 O         139.3697  143.1915  171.3616 O.co2   1  UNL1       -0.5446
     20 O         140.7541  141.0370  171.7986 O.co2   1  UNL1       -0.5446
     21 C         138.9131  140.3054  158.4027 C.3     1  UNL1        0.0992
     22 C         140.3117  143.9838  158.9153 C.ar    1  UNL1        0.1487
     23 C         139.9526  142.5532  159.1880 C.ar    1  UNL1        0.0349
     24 C         139.2721  141.7360  158.1301 C.ar    1  UNL1       -0.0031
     25 C         138.9508  142.3494  156.7995 C.ar    1  UNL1       -0.0019
     26 C         139.3099  143.7801  156.5268 C.ar    1  UNL1        0.0142
     27 C         139.9903  144.5973  157.5847 C.ar    1  UNL1        0.0915
     28 CL        140.3494  146.0279  157.3121 Cl      1  UNL1       -0.0791
     29 O         140.9921  144.8010  159.9733 O.3     1  UNL1       -0.4746
     30 C         139.5655  144.9821  162.1370 C.3     1  UNL1        0.0512
     31 C         140.1763  145.6233  160.9263 C.3     1  UNL1        0.2056
@<TRIPOS>UNITY_ATOM_ATTR
19 1
charge -1
@<TRIPOS>BOND
     1    30    31    1
     2    31    29    1
     3    29    22    1
     4    22    23   ar
     5    23    24   ar
     6    24    21    1
     7    21     1    1
     8     1     2    1
     9     2     3    1
    10     3     4    1
    11     4     7    1
    12     7     9    1
    13     9    10   ar
    14    10    11   ar
    15    11    12   ar
    16    12    13   ar
    17    13    14   ar
    18    14    18    1
    19    18    19   ar
    20    18    20   ar
    21    14    15   ar
    22    15    16   ar
    23    16    17   ar
    24     4     5    1
    25     5     6    1
    26    24    25   ar
    27    25    26   ar
    28    26    27   ar
    29    27    28    1
    30    27    22   ar
    31     6     1    1
    32    17     9   ar
    33    16    11   ar
    34     7     8    1
@<TRIPOS>MOLECULE
*****
 31 34 0 0 0
SMALL
GASTEIGER

@<TRIPOS>ATOM
      1 N         144.0087  140.9993  161.1046 N.3     1  UNL1       -0.2688
      2 C         144.7957  141.4076  162.3145 C.3     1  UNL1        0.0741
      3 C         144.6553  140.6391  163.5951 C.3     1  UNL1        0.0370
      4 C         143.7279  139.4623  163.6657 C.3     1  UNL1        0.0760
      5 C         142.9408  139.0540  162.4558 C.3     1  UNL1        0.0370
      6 C         143.0812  139.8225  161.1753 C.3     1  UNL1        0.0741
      7 N         143.5874  138.6938  164.9462 N.pl3   1  UNL1       -0.2899
      8 H         143.8558  137.7473  164.9842 H       1  UNL1        0.1511
      9 C         143.0382  139.3674  166.1688 C.ar    1  UNL1        0.2890
     10 N         143.1844  138.8854  167.5817 N.ar    1  UNL1       -0.1948
     11 C         142.4829  139.8613  168.4793 C.ar    1  UNL1        0.1202
     12 C         142.2972  139.9021  169.9671 C.ar    1  UNL1        0.0224
     13 C         141.5317  141.0279  170.5968 C.ar    1  UNL1        0.0029
     14 C         140.9521  142.1130  169.7386 C.ar    1  UNL1        0.0171
     15 C         141.1378  142.0723  168.2507 C.ar    1  UNL1        0.0403
     16 C         141.9033  140.9464  167.6211 C.ar    1  UNL1        0.1660
     17 O         142.2465  140.6411  166.1931 O.2     1  UNL1       -0.4239
     18 C         140.1866  143.2389  170.3683 C.2     1  UNL1        0.0730
     19 O         138.8777  142.9676  171.0488 O.co2   1  UNL1       -0.5446
     20 O         140.7300  144.6361  170.3175 O.co2   1  UNL1       -0.5446
     21 C         144.1490  141.7677  159.8241 C.3     1  UNL1        0.0992
     22 C         140.9428  144.1004  159.9929 C.ar    1  UNL1        0.1487
     23 C         141.9560  143.0555  160.3555 C.ar    1  UNL1        0.0349
     24 C         143.1358  142.8127  159.4615 C.ar    1  UNL1       -0.0031
     25 C         143.3024  143.6148  158.2051 C.ar    1  UNL1       -0.0019
     26 C         142.2892  144.6598  157.8425 C.ar    1  UNL1        0.0142
     27 C         141.1094  144.9026  158.7364 C.ar    1  UNL1        0.0915
     28 CL        140.0962  145.9476  158.3739 Cl      1  UNL1       -0.0791
     29 O         139.7630  144.3432  160.8869 O.3     1  UNL1       -0.4746
     30 C         140.2696  145.0863  163.3243 C.3     1  UNL1        0.0512
     31 C         139.8222  145.4179  161.9316 C.3     1  UNL1        0.2056
@<TRIPOS>UNITY_ATOM_ATTR
19 1
charge -1
@<TRIPOS>BOND
     1    30    31    1
     2    31    29    1
     3    29    22    1
     4    22    23   ar
     5    23    24   ar
     6    24    21    1
     7    21     1    1
     8     1     2    1
     9     2     3    1
    10     3     4    1
    11     4     7    1
    12     7     9    1
    13     9    10   ar
    14    10    11   ar
    15    11    12   ar
    16    12    13   ar
    17    13    14   ar
    18    14    18    1
    19    18    19   ar
    20    18    20   ar
    21    14    15   ar
    22    15    16   ar
    23    16    17   ar
    24     4     5    1
    25     5     6    1
    26    24    25   ar
    27    25    26   ar
    28    26    27   ar
    29    27    28    1
    30    27    22   ar
    31     6     1    1
    32    17     9   ar
    33    16    11   ar
    34     7     8    1
@<TRIPOS>MOLECULE
*****
 31 34 0 0 0
SMALL
GASTEIGER

@<TRIPOS>ATOM
      1 N         139.0401  139.1231  161.7938 N.3     1  UNL1       -0.2688
      2 C         138.6121  139.7492  160.4997 C.3     1  UNL1        0.0741
      3 C         139.5125  139.6853  159.3016 C.3     1  UNL1        0.0370
      4 C         140.8408  138.9953  159.3977 C.3     1  UNL1        0.0760
      5 C         141.2688  138.3691  160.6919 C.3     1  UNL1        0.0370
      6 C         140.3685  138.4330  161.8899 C.3     1  UNL1        0.0741
      7 N         141.7412  138.9314  158.1997 N.pl3   1  UNL1       -0.2899
      8 H         142.1726  139.7501  157.8640 H       1  UNL1        0.1511
      9 C         141.9843  137.6200  157.5133 C.ar    1  UNL1        0.2890
     10 N         141.1566  137.0375  156.4062 N.ar    1  UNL1       -0.1948
     11 C         141.7585  135.7183  156.0222 C.ar    1  UNL1        0.1202
     12 C         141.3692  134.6991  154.9929 C.ar    1  UNL1        0.0224
     13 C         142.1796  133.4470  154.8333 C.ar    1  UNL1        0.0029
     14 C         143.3793  133.2141  155.7031 C.ar    1  UNL1        0.0171
     15 C         143.7686  134.2334  156.7324 C.ar    1  UNL1        0.0403
     16 C         142.9582  135.4855  156.8919 C.ar    1  UNL1        0.1660
     17 O         143.0978  136.6607  157.8135 O.2     1  UNL1       -0.4239
     18 C         144.1897  131.9620  155.5435 C.2     1  UNL1        0.0730
     19 O         145.4881  131.8101  156.2790 O.co2   1  UNL1       -0.5446
     20 O         143.7016  130.8617  154.6484 O.co2   1  UNL1       -0.5446
     21 C         138.1397  139.1870  162.9918 C.3     1  UNL1        0.0992
     22 C         139.8187  141.6257  165.6345 C.ar    1  UNL1        0.1487
     23 C         139.3010  141.0834  164.3353 C.ar    1  UNL1        0.0349
     24 C         138.6574  139.7292  164.2910 C.ar    1  UNL1       -0.0031
     25 C         138.5315  138.9173  165.5459 C.ar    1  UNL1       -0.0019
     26 C         139.0492  139.4595  166.8452 C.ar    1  UNL1        0.0142
     27 C         139.6928  140.8137  166.8895 C.ar    1  UNL1        0.0915
     28 CL        140.2105  141.3560  168.1887 Cl      1  UNL1       -0.0791
     29 O         140.4622  142.9799  165.6787 O.3     1  UNL1       -0.4746
     30 C         138.6694  144.8106  165.2500 C.3     1  UNL1        0.0512
     31 C         139.9209  144.0955  164.8348 C.3     1  UNL1        0.2056
@<TRIPOS>UNITY_ATOM_ATTR
19 1
charge -1
@<TRIPOS>BOND
     1    30    31    1
     2    31    29    1
     3    29    22    1
     4    22    23   ar
     5    23    24   ar
     6    24    21    1
     7    21     1    1
     8     1     2    1
     9     2     3    1
    10     3     4    1
    11     4     7    1
    12     7     9    1
    13     9    10   ar
    14    10    11   ar
    15    11    12   ar
    16    12    13   ar
    17    13    14   ar
    18    14    18    1
    19    18    19   ar
    20    18    20   ar
    21    14    15   ar
    22    15    16   ar
    23    16    17   ar
    24     4     5    1
    25     5     6    1
    26    24    25   ar
    27    25    26   ar
    28    26    27   ar
    29    27    28    1
    30    27    22   ar
    31     6     1    1
    32    17     9   ar
    33    16    11   ar
    34     7     8    1
@<TRIPOS>MOLECULE
*****
 31 34 0 0 0
SMALL
GASTEIGER

@<TRIPOS>ATOM
      1 N         140.4104  138.5154  160.2670 N.3     1  UNL1       -0.2688
      2 C         141.3172  137.9555  161.3225 C.3     1  UNL1        0.0741
      3 C         140.8245  137.8037  162.7311 C.3     1  UNL1        0.0370
      4 C         139.4249  138.2119  163.0842 C.3     1  UNL1        0.0760
      5 C         138.5181  138.7719  162.0286 C.3     1  UNL1        0.0370
      6 C         139.0108  138.9236  160.6200 C.3     1  UNL1        0.0741
      7 N         138.9322  138.0602  164.4928 N.pl3   1  UNL1       -0.2899
      8 H         138.3876  137.2788  164.7423 H       1  UNL1        0.1511
      9 C         139.2691  139.0988  165.5212 C.ar    1  UNL1        0.2890
     10 N         139.8902  140.4373  165.2519 N.ar    1  UNL1       -0.1948
     11 C         140.0491  141.1471  166.5638 C.ar    1  UNL1        0.1202
     12 C         140.6024  142.4965  166.9143 C.ar    1  UNL1        0.0224
     13 C         140.6327  142.9460  168.3450 C.ar    1  UNL1        0.0029
     14 C         140.1097  142.0461  169.4252 C.ar    1  UNL1        0.0171
     15 C         139.5564  140.6967  169.0746 C.ar    1  UNL1        0.0403
     16 C         139.5261  140.2472  167.6439 C.ar    1  UNL1        0.1660
     17 O         139.0441  138.9813  166.9996 O.2     1  UNL1       -0.4239
     18 C         140.1400  142.4957  170.8560 C.2     1  UNL1        0.0730
     19 O         139.0320  143.3496  171.3974 O.co2   1  UNL1       -0.5446
     20 O         141.2783  142.0915  171.7452 O.co2   1  UNL1       -0.5446
     21 C         140.9031  138.6672  158.8583 C.3     1  UNL1        0.0992
     22 C         143.3672  141.7705  159.0762 C.ar    1  UNL1        0.1487
     23 C         142.2297  140.8400  159.3768 C.ar    1  UNL1        0.0349
     24 C         142.0406  139.5977  158.5577 C.ar    1  UNL1       -0.0031
     25 C         142.9888  139.2858  157.4382 C.ar    1  UNL1       -0.0019
     26 C         144.1264  140.2163  157.1376 C.ar    1  UNL1        0.0142
     27 C         144.3155  141.4587  157.9566 C.ar    1  UNL1        0.0915
     28 CL        145.4530  142.3892  157.6561 Cl      1  UNL1       -0.0791
     29 O         143.5563  143.0129  159.8953 O.3     1  UNL1       -0.4746
     30 C         141.5103  144.4146  160.6690 C.3     1  UNL1        0.0512
     31 C         142.5542  143.3751  160.9509 C.3     1  UNL1        0.2056
@<TRIPOS>UNITY_ATOM_ATTR
19 1
charge -1
@<TRIPOS>BOND
     1    30    31    1
     2    31    29    1
     3    29    22    1
     4    22    23   ar
     5    23    24   ar
     6    24    21    1
     7    21     1    1
     8     1     2    1
     9     2     3    1
    10     3     4    1
    11     4     7    1
    12     7     9    1
    13     9    10   ar
    14    10    11   ar
    15    11    12   ar
    16    12    13   ar
    17    13    14   ar
    18    14    18    1
    19    18    19   ar
    20    18    20   ar
    21    14    15   ar
    22    15    16   ar
    23    16    17   ar
    24     4     5    1
    25     5     6    1
    26    24    25   ar
    27    25    26   ar
    28    26    27   ar
    29    27    28    1
    30    27    22   ar
    31     6     1    1
    32    17     9   ar
    33    16    11   ar
    34     7     8    1
