@<TRIPOS>MOLECULE
*****
 40 46 0 0 0
SMALL
GASTEIGER

@<TRIPOS>ATOM
      1 C         139.9694  141.7624  161.1578 C.3     1  UNL1        0.1706
      2 N         140.7024  141.1491  160.0017 N.3     1  UNL1       -0.2797
      3 C         141.0216  139.6835  160.0085 C.3     1  UNL1        0.1167
      4 C         140.6077  138.8311  161.1713 C.3     1  UNL1        0.0511
      5 C         139.8746  139.4444  162.3274 C.2     1  UNL1       -0.0037
      6 C         139.5554  140.9100  162.3206 C.2     1  UNL1        0.0800
      7 N         138.8270  141.2316  163.5918 N.2     1  UNL1       -0.2519
      8 C         138.6960  139.9647  164.3842 C.2     1  UNL1        0.0627
      9 C         138.0708  139.6743  165.7164 C.3     1  UNL1        0.0717
     10 C         138.0930  138.2792  166.2671 C.2     1  UNL1       -0.0198
     11 C         138.7405  137.1746  165.4856 C.2     1  UNL1       -0.0042
     12 C         139.3657  137.4651  164.1534 C.2     1  UNL1        0.0006
     13 C         139.3434  138.8601  163.6028 C.2     1  UNL1        0.0111
     14 H         141.5909  141.6436  159.9207 H       1  UNL1        0.1246
     15 C         139.2991  142.7964  162.0132 C.ar    1  UNL1        0.2478
     16 N         138.0057  143.4910  161.7063 N.ar    1  UNL1       -0.1096
     17 N         137.7120  144.4412  162.8292 N.ar    1  UNL1       -0.1116
     18 C         138.8240  144.3337  163.8301 C.ar    1  UNL1        0.2267
     19 C         138.9354  145.1070  165.1106 C.3     1  UNL1        0.0967
     20 O         139.8049  143.3171  163.3258 O.2     1  UNL1       -0.4213
     21 C         141.7547  139.0701  158.8524 C.ar    1  UNL1        0.1319
     22 N         141.6275  137.6522  158.3801 N.ar    1  UNL1       -0.2282
     23 C         142.5379  137.4728  157.2015 C.ar    1  UNL1        0.1171
     24 C         143.2276  138.7799  156.9454 C.ar    1  UNL1        0.0942
     25 N         142.7436  139.7671  157.9657 N.ar    1  UNL1       -0.3385
     26 H         143.0255  140.7075  158.0403 H       1  UNL1        0.1672
     27 C         142.7255  136.2082  156.4168 C.ar    1  UNL1        0.1006
     28 C         142.3765  136.1717  154.9584 C.ar    1  UNL1        0.0230
     29 C         142.5641  134.9073  154.1737 C.ar    1  UNL1        0.0328
     30 C         143.1007  133.6792  154.8474 C.ar    1  UNL1        0.1592
     31 F         143.2883  132.4146  154.0626 F       1  UNL1       -0.2025
     32 C         143.4497  133.7156  156.3057 C.ar    1  UNL1        0.1284
     33 N         143.2621  134.9801  157.0905 N.ar    1  UNL1       -0.2399
     34 N         140.0302  144.5096  158.4165 N.ar    1  UNL1       -0.2497
     35 C         139.6113  143.1542  158.9040 C.ar    1  UNL1        0.0944
     36 C         140.1505  142.9738  160.2920 C.ar    1  UNL1        0.0439
     37 C         140.9027  144.2177  160.6624 C.ar    1  UNL1        0.1194
     38 N         140.8283  145.1668  159.5032 N.ar    1  UNL1       -0.1679
     39 C         139.9206  146.5684  156.8356 C.3     1  UNL1        0.0284
     40 C         139.7077  145.1034  157.0773 C.3     1  UNL1        0.1276
@<TRIPOS>BOND
     1    39    40    1
     2    40    34    1
     3    34    35   ar
     4    35    36   ar
     5     1    36    1
     6     1    15    1
     7    15    16   ar
     8    16    17   ar
     9    17    18   ar
    10    18    19    1
    11    18    20   ar
    12     1     2    1
    13     2     3    1
    14     3    21    1
    15    21    22   ar
    16    22    23   ar
    17    23    27    1
    18    27    28   ar
    19    28    29   ar
    20    29    30   ar
    21    30    31    1
    22    30    32   ar
    23    32    33   ar
    24    23    24   ar
    25    24    25   ar
    26     3     4    1
    27     4     5    1
    28     5     6    2
    29     6     7    1
    30     7     8    2
    31     8     9    1
    32     9    10    1
    33    10    11    2
    34    11    12    1
    35    12    13    2
    36    36    37   ar
    37    37    38   ar
    38    38    34   ar
    39     6     1    1
    40    13     8    1
    41    20    15   ar
    42    25    21   ar
    43    13     5    1
    44    33    27   ar
    45     2    14    1
    46    25    26    1
@<TRIPOS>MOLECULE
*****
 40 46 0 0 0
SMALL
GASTEIGER

@<TRIPOS>ATOM
      1 C         142.4153  142.6345  160.1813 C.3     1  UNL1        0.1706
      2 N         141.8867  143.2635  158.9263 N.3     1  UNL1       -0.2797
      3 C         140.7095  144.1910  158.9906 C.3     1  UNL1        0.1167
      4 C         140.0610  144.4895  160.3099 C.3     1  UNL1        0.0511
      5 C         140.5896  143.8604  161.5648 C.2     1  UNL1       -0.0037
      6 C         141.7667  142.9330  161.5005 C.2     1  UNL1        0.0800
      7 N         142.0646  142.4648  162.8941 N.2     1  UNL1       -0.2519
      8 C         141.0716  143.1030  163.8197 C.2     1  UNL1        0.0627
      9 C         140.8797  143.0101  165.3044 C.3     1  UNL1        0.0717
     10 C         139.7762  143.7798  165.9676 C.2     1  UNL1       -0.0198
     11 C         138.8646  144.6423  165.1460 C.2     1  UNL1       -0.0042
     12 C         139.0565  144.7352  163.6613 C.2     1  UNL1        0.0006
     13 C         140.1600  143.9656  162.9981 C.2     1  UNL1        0.0111
     14 H         141.6265  142.5005  158.3015 H       1  UNL1        0.1246
     15 C         143.2725  141.8013  161.0874 C.ar    1  UNL1        0.2478
     16 N         144.6358  142.1677  161.5941 N.ar    1  UNL1       -0.1096
     17 N         145.1227  141.0482  162.4658 N.ar    1  UNL1       -0.1116
     18 C         144.0601  139.9900  162.4977 C.ar    1  UNL1        0.2267
     19 C         144.1290  138.6938  163.2496 C.3     1  UNL1        0.0967
     20 O         142.9166  140.4554  161.6458 O.2     1  UNL1       -0.4213
     21 C         140.1809  144.8201  157.7357 C.ar    1  UNL1        0.1319
     22 N         140.3782  146.2459  157.3135 N.ar    1  UNL1       -0.2282
     23 C         139.6814  146.4408  155.9995 C.ar    1  UNL1        0.1171
     24 C         139.0535  145.1356  155.6097 C.ar    1  UNL1        0.0942
     25 N         139.3622  144.1339  156.6827 N.ar    1  UNL1       -0.3385
     26 H         139.0775  143.1916  156.6939 H       1  UNL1        0.1672
     27 C         139.6229  147.7171  155.2134 C.ar    1  UNL1        0.1006
     28 C         140.2627  147.7936  153.8588 C.ar    1  UNL1        0.0230
     29 C         140.2041  149.0697  153.0727 C.ar    1  UNL1        0.0328
     30 C         139.5058  150.2693  153.6412 C.ar    1  UNL1        0.1592
     31 F         139.4473  151.5456  152.8551 F       1  UNL1       -0.2025
     32 C         138.8661  150.1928  154.9958 C.ar    1  UNL1        0.1284
     33 N         138.9246  148.9167  155.7819 N.ar    1  UNL1       -0.2399
     34 N         145.1382  141.8139  157.5397 N.ar    1  UNL1       -0.2497
     35 C         144.4364  142.7883  158.4388 C.ar    1  UNL1        0.0944
     36 C         143.3615  142.0467  159.1768 C.ar    1  UNL1        0.0439
     37 C         143.3989  140.6140  158.7339 C.ar    1  UNL1        0.1194
     38 N         144.4970  140.4702  157.7221 N.ar    1  UNL1       -0.1679
     39 C         147.4779  142.8691  157.1370 C.3     1  UNL1        0.0284
     40 C         146.2806  142.1281  156.6198 C.3     1  UNL1        0.1276
@<TRIPOS>BOND
     1    39    40    1
     2    40    34    1
     3    34    35   ar
     4    35    36   ar
     5     1    36    1
     6     1    15    1
     7    15    16   ar
     8    16    17   ar
     9    17    18   ar
    10    18    19    1
    11    18    20   ar
    12     1     2    1
    13     2     3    1
    14     3    21    1
    15    21    22   ar
    16    22    23   ar
    17    23    27    1
    18    27    28   ar
    19    28    29   ar
    20    29    30   ar
    21    30    31    1
    22    30    32   ar
    23    32    33   ar
    24    23    24   ar
    25    24    25   ar
    26     3     4    1
    27     4     5    1
    28     5     6    2
    29     6     7    1
    30     7     8    2
    31     8     9    1
    32     9    10    1
    33    10    11    2
    34    11    12    1
    35    12    13    2
    36    36    37   ar
    37    37    38   ar
    38    38    34   ar
    39     6     1    1
    40    13     8    1
    41    20    15   ar
    42    25    21   ar
    43    13     5    1
    44    33    27   ar
    45     2    14    1
    46    25    26    1
@<TRIPOS>MOLECULE
*****
 40 46 0 0 0
SMALL
GASTEIGER

@<TRIPOS>ATOM
      1 C         140.6746  140.9375  159.9556 C.3     1  UNL1        0.1706
      2 N         141.0444  139.8814  158.9568 N.3     1  UNL1       -0.2797
      3 C         142.3986  139.2386  159.0115 C.3     1  UNL1        0.1167
      4 C         143.3830  139.6521  160.0651 C.3     1  UNL1        0.0511
      5 C         143.0132  140.7083  161.0639 C.2     1  UNL1       -0.0037
      6 C         141.6590  141.3510  161.0092 C.2     1  UNL1        0.0800
      7 N         141.5780  142.3566  162.1192 N.2     1  UNL1       -0.2519
      8 C         142.8822  142.3354  162.8600 C.2     1  UNL1        0.0627
      9 C         143.3766  143.1120  164.0442 C.3     1  UNL1        0.0717
     10 C         144.7580  142.8700  164.5762 C.2     1  UNL1       -0.0198
     11 C         145.6450  141.8512  163.9240 C.2     1  UNL1       -0.0042
     12 C         145.1506  141.0746  162.7398 C.2     1  UNL1        0.0006
     13 C         143.7692  141.3166  162.2078 C.2     1  UNL1        0.0111
     14 H         140.9571  140.3058  158.0334 H       1  UNL1        0.1246
     15 C         139.8653  141.9754  160.6754 C.ar    1  UNL1        0.2478
     16 N         139.7336  143.4176  160.2852 N.ar    1  UNL1       -0.1096
     17 N         138.8325  144.0866  161.2805 N.ar    1  UNL1       -0.1116
     18 C         138.4074  143.0578  162.2858 C.ar    1  UNL1        0.2267
     19 C         137.5028  143.2926  163.4591 C.3     1  UNL1        0.0967
     20 O         139.0458  141.7529  161.9118 O.2     1  UNL1       -0.4213
     21 C         142.7685  138.1824  158.0127 C.ar    1  UNL1        0.1319
     22 N         142.4905  136.7138  158.1387 N.ar    1  UNL1       -0.2282
     23 C         143.0314  136.0331  156.9164 C.ar    1  UNL1        0.1171
     24 C         143.6438  137.0810  156.0350 C.ar    1  UNL1        0.0942
     25 N         143.4813  138.4093  156.7125 N.ar    1  UNL1       -0.3385
     26 H         143.7885  139.2777  156.3649 H       1  UNL1        0.1672
     27 C         142.9707  134.5626  156.6264 C.ar    1  UNL1        0.1006
     28 C         141.8938  134.0177  155.7358 C.ar    1  UNL1        0.0230
     29 C         141.8330  132.5472  155.4458 C.ar    1  UNL1        0.0328
     30 C         142.8491  131.6217  156.0465 C.ar    1  UNL1        0.1592
     31 F         142.7883  130.1512  155.7566 F       1  UNL1       -0.2025
     32 C         143.9260  132.1667  156.9372 C.ar    1  UNL1        0.1284
     33 N         143.9868  133.6371  157.2272 N.ar    1  UNL1       -0.2399
     34 N         137.7508  141.2939  157.4278 N.ar    1  UNL1       -0.2497
     35 C         139.1331  141.6479  157.8906 C.ar    1  UNL1        0.0944
     36 C         139.4092  140.8845  159.1520 C.ar    1  UNL1        0.0439
     37 C         138.1976  140.0588  159.4687 C.ar    1  UNL1        0.1194
     38 N         137.1727  140.3119  158.4031 N.ar    1  UNL1       -0.1679
     39 C         135.7325  141.2812  155.7919 C.3     1  UNL1        0.0284
     40 C         137.0669  141.8283  156.2043 C.3     1  UNL1        0.1276
@<TRIPOS>BOND
     1    39    40    1
     2    40    34    1
     3    34    35   ar
     4    35    36   ar
     5     1    36    1
     6     1    15    1
     7    15    16   ar
     8    16    17   ar
     9    17    18   ar
    10    18    19    1
    11    18    20   ar
    12     1     2    1
    13     2     3    1
    14     3    21    1
    15    21    22   ar
    16    22    23   ar
    17    23    27    1
    18    27    28   ar
    19    28    29   ar
    20    29    30   ar
    21    30    31    1
    22    30    32   ar
    23    32    33   ar
    24    23    24   ar
    25    24    25   ar
    26     3     4    1
    27     4     5    1
    28     5     6    2
    29     6     7    1
    30     7     8    2
    31     8     9    1
    32     9    10    1
    33    10    11    2
    34    11    12    1
    35    12    13    2
    36    36    37   ar
    37    37    38   ar
    38    38    34   ar
    39     6     1    1
    40    13     8    1
    41    20    15   ar
    42    25    21   ar
    43    13     5    1
    44    33    27   ar
    45     2    14    1
    46    25    26    1
@<TRIPOS>MOLECULE
*****
 40 46 0 0 0
SMALL
GASTEIGER

@<TRIPOS>ATOM
      1 C         141.5597  142.0036  161.6444 C.3     1  UNL1        0.1706
      2 N         141.8022  141.2702  160.3586 N.3     1  UNL1       -0.2797
      3 C         142.3864  139.8888  160.3818 C.3     1  UNL1        0.1167
      4 C         142.7281  139.2409  161.6908 C.3     1  UNL1        0.0511
      5 C         142.4856  139.9743  162.9766 C.2     1  UNL1       -0.0037
      6 C         141.9014  141.3556  162.9534 C.2     1  UNL1        0.0800
      7 N         141.7753  141.8294  164.3710 N.2     1  UNL1       -0.2519
      8 C         142.2815  140.7409  165.2703 C.2     1  UNL1        0.0627
      9 C         142.3995  140.6456  166.7626 C.3     1  UNL1        0.0717
     10 C         142.9565  139.4038  167.3931 C.2     1  UNL1       -0.0198
     11 C         143.3955  138.2572  166.5313 C.2     1  UNL1       -0.0042
     12 C         143.2775  138.3525  165.0390 C.2     1  UNL1        0.0006
     13 C         142.7205  139.5943  164.4085 C.2     1  UNL1        0.0111
     14 H         142.4345  141.8480  159.8047 H       1  UNL1        0.1246
     15 C         141.1489  143.0935  162.5896 C.ar    1  UNL1        0.2478
     16 N         141.9650  144.2978  162.9547 N.ar    1  UNL1       -0.1096
     17 N         141.1704  145.1190  163.9265 N.ar    1  UNL1       -0.1116
     18 C         139.8632  144.4221  164.1619 C.ar    1  UNL1        0.2267
     19 C         138.7625  144.8942  165.0650 C.3     1  UNL1        0.0967
     20 O         139.8499  143.1702  163.3357 O.2     1  UNL1       -0.4213
     21 C         142.6290  139.1553  159.0960 C.ar    1  UNL1        0.1319
     22 N         142.5367  137.6716  158.8965 N.ar    1  UNL1       -0.2282
     23 C         142.8571  137.3761  157.4612 C.ar    1  UNL1        0.1171
     24 C         143.1473  138.6772  156.7737 C.ar    1  UNL1        0.0942
     25 N         143.0064  139.7769  157.7840 N.ar    1  UNL1       -0.3385
     26 H         143.1383  140.7379  157.6156 H       1  UNL1        0.1672
     27 C         142.8827  136.0178  156.8251 C.ar    1  UNL1        0.1006
     28 C         142.4574  135.8505  155.3964 C.ar    1  UNL1        0.0230
     29 C         142.4830  134.4924  154.7604 C.ar    1  UNL1        0.0328
     30 C         142.9339  133.3014  155.5529 C.ar    1  UNL1        0.1592
     31 F         142.9595  131.9431  154.9169 F       1  UNL1       -0.2025
     32 C         143.3592  133.4687  156.9816 C.ar    1  UNL1        0.1284
     33 N         143.3336  134.8268  157.6177 N.ar    1  UNL1       -0.2399
     34 N         141.0392  144.7638  158.9656 N.ar    1  UNL1       -0.2497
     35 C         141.9383  143.8828  159.7815 C.ar    1  UNL1        0.0944
     36 C         141.0754  143.0300  160.6637 C.ar    1  UNL1        0.0439
     37 C         139.6431  143.3840  160.3929 C.ar    1  UNL1        0.1194
     38 N         139.6208  144.4555  159.3435 N.ar    1  UNL1       -0.1679
     39 C         140.5203  146.2568  156.9037 C.3     1  UNL1        0.0284
     40 C         141.4812  145.7755  157.9501 C.3     1  UNL1        0.1276
@<TRIPOS>BOND
     1    39    40    1
     2    40    34    1
     3    34    35   ar
     4    35    36   ar
     5     1    36    1
     6     1    15    1
     7    15    16   ar
     8    16    17   ar
     9    17    18   ar
    10    18    19    1
    11    18    20   ar
    12     1     2    1
    13     2     3    1
    14     3    21    1
    15    21    22   ar
    16    22    23   ar
    17    23    27    1
    18    27    28   ar
    19    28    29   ar
    20    29    30   ar
    21    30    31    1
    22    30    32   ar
    23    32    33   ar
    24    23    24   ar
    25    24    25   ar
    26     3     4    1
    27     4     5    1
    28     5     6    2
    29     6     7    1
    30     7     8    2
    31     8     9    1
    32     9    10    1
    33    10    11    2
    34    11    12    1
    35    12    13    2
    36    36    37   ar
    37    37    38   ar
    38    38    34   ar
    39     6     1    1
    40    13     8    1
    41    20    15   ar
    42    25    21   ar
    43    13     5    1
    44    33    27   ar
    45     2    14    1
    46    25    26    1
@<TRIPOS>MOLECULE
*****
 40 46 0 0 0
SMALL
GASTEIGER

@<TRIPOS>ATOM
      1 C         139.6571  141.5504  159.9447 C.3     1  UNL1        0.1706
      2 N         139.7573  140.7215  158.6985 N.3     1  UNL1       -0.2797
      3 C         139.6390  139.2284  158.7794 C.3     1  UNL1        0.1167
      4 C         139.4205  138.5641  160.1065 C.3     1  UNL1        0.0511
      5 C         139.3204  139.3930  161.3526 C.2     1  UNL1       -0.0037
      6 C         139.4387  140.8861  161.2718 C.2     1  UNL1        0.0800
      7 N         139.3004  141.4378  162.6597 N.2     1  UNL1       -0.2519
      8 C         139.0965  140.2857  163.5984 C.2     1  UNL1        0.0627
      9 C         138.9013  140.2241  165.0843 C.3     1  UNL1        0.0717
     10 C         138.7184  138.8987  165.7624 C.2     1  UNL1       -0.0198
     11 C         138.7308  137.6349  164.9546 C.2     1  UNL1       -0.0042
     12 C         138.9261  137.6965  163.4686 C.2     1  UNL1        0.0006
     13 C         139.1089  139.0219  162.7906 C.2     1  UNL1        0.0111
     14 H         140.6670  140.9228  158.2834 H       1  UNL1        0.1246
     15 C         139.6295  142.7553  160.8378 C.ar    1  UNL1        0.2478
     16 N         138.4317  143.6099  161.1287 N.ar    1  UNL1       -0.1096
     17 N         138.8569  144.6998  162.0675 N.ar    1  UNL1       -0.1116
     18 C         140.3175  144.5187  162.3568 C.ar    1  UNL1        0.2267
     19 C         141.1538  145.3871  163.2494 C.3     1  UNL1        0.0967
     20 O         140.7951  143.3169  161.5968 O.2     1  UNL1       -0.4213
     21 C         139.7391  138.3995  157.5332 C.ar    1  UNL1        0.1319
     22 N         140.6799  137.2527  157.3104 N.ar    1  UNL1       -0.2282
     23 C         140.4383  136.7163  155.9306 C.ar    1  UNL1        0.1171
     24 C         139.3482  137.5317  155.3006 C.ar    1  UNL1        0.0942
     25 N         138.9161  138.5719  156.2911 N.ar    1  UNL1       -0.3385
     26 H         138.2153  139.2490  156.1506 H       1  UNL1        0.1672
     27 C         141.1601  135.5664  155.2927 C.ar    1  UNL1        0.1006
     28 C         142.1913  134.8038  156.0706 C.ar    1  UNL1        0.0230
     29 C         142.9131  133.6540  155.4328 C.ar    1  UNL1        0.0328
     30 C         142.6036  133.2667  154.0171 C.ar    1  UNL1        0.1592
     31 F         143.3254  132.1168  153.3793 F       1  UNL1       -0.2025
     32 C         141.5724  134.0292  153.2393 C.ar    1  UNL1        0.1284
     33 N         140.8506  135.1791  153.8770 N.ar    1  UNL1       -0.2399
     34 N         139.5127  144.1540  157.0697 N.ar    1  UNL1       -0.2497
     35 C         138.8969  143.0344  157.8555 C.ar    1  UNL1        0.0944
     36 C         139.8660  142.6331  158.9279 C.ar    1  UNL1        0.0439
     37 C         141.0806  143.5048  158.8049 C.ar    1  UNL1        0.1194
     38 N         140.8622  144.4447  157.6564 N.ar    1  UNL1       -0.1679
     39 C         137.5963  144.3590  155.3275 C.3     1  UNL1        0.0284
     40 C         138.8884  144.8591  155.9022 C.3     1  UNL1        0.1276
@<TRIPOS>BOND
     1    39    40    1
     2    40    34    1
     3    34    35   ar
     4    35    36   ar
     5     1    36    1
     6     1    15    1
     7    15    16   ar
     8    16    17   ar
     9    17    18   ar
    10    18    19    1
    11    18    20   ar
    12     1     2    1
    13     2     3    1
    14     3    21    1
    15    21    22   ar
    16    22    23   ar
    17    23    27    1
    18    27    28   ar
    19    28    29   ar
    20    29    30   ar
    21    30    31    1
    22    30    32   ar
    23    32    33   ar
    24    23    24   ar
    25    24    25   ar
    26     3     4    1
    27     4     5    1
    28     5     6    2
    29     6     7    1
    30     7     8    2
    31     8     9    1
    32     9    10    1
    33    10    11    2
    34    11    12    1
    35    12    13    2
    36    36    37   ar
    37    37    38   ar
    38    38    34   ar
    39     6     1    1
    40    13     8    1
    41    20    15   ar
    42    25    21   ar
    43    13     5    1
    44    33    27   ar
    45     2    14    1
    46    25    26    1
@<TRIPOS>MOLECULE
*****
 40 46 0 0 0
SMALL
GASTEIGER

@<TRIPOS>ATOM
      1 C         141.5983  141.8678  158.9646 C.3     1  UNL1        0.1706
      2 N         141.5029  140.5981  158.1716 N.3     1  UNL1       -0.2797
      3 C         142.2434  139.3744  158.6233 C.3     1  UNL1        0.1167
      4 C         143.0793  139.4203  159.8680 C.3     1  UNL1        0.0511
      5 C         143.1747  140.6900  160.6609 C.2     1  UNL1       -0.0037
      6 C         142.4342  141.9137  160.2092 C.2     1  UNL1        0.0800
      7 N         142.7168  143.0143  161.1885 N.2     1  UNL1       -0.2519
      8 C         143.6320  142.4707  162.2454 C.2     1  UNL1        0.0627
      9 C         144.2441  143.0982  163.4625 C.3     1  UNL1        0.0717
     10 C         145.1393  142.2891  164.3536 C.2     1  UNL1       -0.0198
     11 C         145.4223  140.8526  164.0276 C.2     1  UNL1       -0.0042
     12 C         144.8102  140.2251  162.8104 C.2     1  UNL1        0.0006
     13 C         143.9150  141.0342  161.9193 C.2     1  UNL1        0.0111
     14 H         141.8346  140.8126  157.2312 H       1  UNL1        0.1246
     15 C         141.3767  143.2936  159.3748 C.ar    1  UNL1        0.2478
     16 N         142.1073  144.4889  158.8390 N.ar    1  UNL1       -0.1096
     17 N         141.5677  145.7083  159.5260 N.ar    1  UNL1       -0.1116
     18 C         140.5036  145.2665  160.4864 C.ar    1  UNL1        0.2267
     19 C         139.6988  146.1602  161.3828 C.3     1  UNL1        0.0967
     20 O         140.3855  143.7740  160.3930 O.2     1  UNL1       -0.4213
     21 C         142.1480  138.1046  157.8304 C.ar    1  UNL1        0.1319
     22 N         143.0696  136.9262  157.9388 N.ar    1  UNL1       -0.2282
     23 C         142.6055  135.8837  156.9652 C.ar    1  UNL1        0.1171
     24 C         141.3970  136.4178  156.2552 C.ar    1  UNL1        0.0942
     25 N         141.1142  137.7905  156.7899 N.ar    1  UNL1       -0.3385
     26 H         140.3792  138.3814  156.5075 H       1  UNL1        0.1672
     27 C         143.2387  134.5424  156.7411 C.ar    1  UNL1        0.1006
     28 C         143.0665  133.8421  155.4258 C.ar    1  UNL1        0.0230
     29 C         143.6997  132.5010  155.2017 C.ar    1  UNL1        0.0328
     30 C         144.5050  131.8601  156.2928 C.ar    1  UNL1        0.1592
     31 F         145.1383  130.5188  156.0687 F       1  UNL1       -0.2025
     32 C         144.6772  132.5603  157.6081 C.ar    1  UNL1        0.1284
     33 N         144.0440  133.9015  157.8323 N.ar    1  UNL1       -0.2399
     34 N         138.6888  142.9100  156.6164 N.ar    1  UNL1       -0.2497
     35 C         139.1912  142.4219  157.9428 C.ar    1  UNL1        0.0944
     36 C         140.6854  142.3171  157.8624 C.ar    1  UNL1        0.0439
     37 C         141.1064  142.7403  156.4863 C.ar    1  UNL1        0.1194
     38 N         139.8724  143.1068  155.7162 N.ar    1  UNL1       -0.1679
     39 C         136.8486  143.2386  154.8120 C.3     1  UNL1        0.0284
     40 C         137.2545  143.1579  156.2538 C.3     1  UNL1        0.1276
@<TRIPOS>BOND
     1    39    40    1
     2    40    34    1
     3    34    35   ar
     4    35    36   ar
     5     1    36    1
     6     1    15    1
     7    15    16   ar
     8    16    17   ar
     9    17    18   ar
    10    18    19    1
    11    18    20   ar
    12     1     2    1
    13     2     3    1
    14     3    21    1
    15    21    22   ar
    16    22    23   ar
    17    23    27    1
    18    27    28   ar
    19    28    29   ar
    20    29    30   ar
    21    30    31    1
    22    30    32   ar
    23    32    33   ar
    24    23    24   ar
    25    24    25   ar
    26     3     4    1
    27     4     5    1
    28     5     6    2
    29     6     7    1
    30     7     8    2
    31     8     9    1
    32     9    10    1
    33    10    11    2
    34    11    12    1
    35    12    13    2
    36    36    37   ar
    37    37    38   ar
    38    38    34   ar
    39     6     1    1
    40    13     8    1
    41    20    15   ar
    42    25    21   ar
    43    13     5    1
    44    33    27   ar
    45     2    14    1
    46    25    26    1
@<TRIPOS>MOLECULE
*****
 40 46 0 0 0
SMALL
GASTEIGER

@<TRIPOS>ATOM
      1 C         141.6507  141.6560  160.6461 C.3     1  UNL1        0.1706
      2 N         141.2917  142.3150  159.3473 N.3     1  UNL1       -0.2797
      3 C         140.3996  143.5209  159.3397 C.3     1  UNL1        0.1167
      4 C         139.8665  144.0677  160.6308 C.3     1  UNL1        0.0511
      5 C         140.2255  143.4086  161.9295 C.2     1  UNL1       -0.0037
      6 C         141.1176  142.2028  161.9372 C.2     1  UNL1        0.0800
      7 N         141.2977  141.7685  163.3616 N.2     1  UNL1       -0.2519
      8 C         140.5169  142.7060  164.2343 C.2     1  UNL1        0.0627
      9 C         140.3238  142.7676  165.7205 C.3     1  UNL1        0.0717
     10 C         139.4679  143.8428  166.3216 C.2     1  UNL1       -0.0198
     11 C         138.8053  144.8564  165.4365 C.2     1  UNL1       -0.0042
     12 C         138.9985  144.7949  163.9503 C.2     1  UNL1        0.0006
     13 C         139.8543  143.7196  163.3492 C.2     1  UNL1        0.0111
     14 H         140.8338  141.6063  158.7742 H       1  UNL1        0.1246
     15 C         142.2695  140.6906  161.6132 C.ar    1  UNL1        0.2478
     16 N         141.7180  139.3488  161.9942 N.ar    1  UNL1       -0.1096
     17 N         142.6561  138.7265  162.9855 N.ar    1  UNL1       -0.1116
     18 C         143.7874  139.6838  163.2171 C.ar    1  UNL1        0.2267
     19 C         144.9531  139.4654  164.1356 C.3     1  UNL1        0.0967
     20 O         143.5485  140.8977  162.3689 O.2     1  UNL1       -0.4213
     21 C         140.0406  144.1800  158.0409 C.ar    1  UNL1        0.1319
     22 N         140.1160  145.6490  157.7474 N.ar    1  UNL1       -0.2282
     23 C         139.6651  145.8628  156.3328 C.ar    1  UNL1        0.1171
     24 C         139.3111  144.5258  155.7521 C.ar    1  UNL1        0.0942
     25 N         139.5431  143.4858  156.8078 N.ar    1  UNL1       -0.3385
     26 H         139.3949  142.5176  156.7088 H       1  UNL1        0.1672
     27 C         139.5828  147.1819  155.6234 C.ar    1  UNL1        0.1006
     28 C         138.8053  148.3123  156.2298 C.ar    1  UNL1        0.0230
     29 C         138.7230  149.6314  155.5205 C.ar    1  UNL1        0.0328
     30 C         139.4181  149.8201  154.2048 C.ar    1  UNL1        0.1592
     31 F         139.3358  151.1392  153.4954 F       1  UNL1       -0.2025
     32 C         140.1956  148.6897  153.5984 C.ar    1  UNL1        0.1284
     33 N         140.2780  147.3706  154.3077 N.ar    1  UNL1       -0.2399
     34 N         142.9265  139.0167  158.1020 N.ar    1  UNL1       -0.2497
     35 C         141.8298  139.6086  158.9370 C.ar    1  UNL1        0.0944
     36 C         142.3987  140.7739  159.6909 C.ar    1  UNL1        0.0439
     37 C         143.8470  140.9023  159.3219 C.ar    1  UNL1        0.1194
     38 N         144.1731  139.8163  158.3399 N.ar    1  UNL1       -0.1679
     39 C         141.4430  137.2818  156.8614 C.3     1  UNL1        0.0284
     40 C         142.7989  137.8331  157.1894 C.3     1  UNL1        0.1276
@<TRIPOS>BOND
     1    39    40    1
     2    40    34    1
     3    34    35   ar
     4    35    36   ar
     5     1    36    1
     6     1    15    1
     7    15    16   ar
     8    16    17   ar
     9    17    18   ar
    10    18    19    1
    11    18    20   ar
    12     1     2    1
    13     2     3    1
    14     3    21    1
    15    21    22   ar
    16    22    23   ar
    17    23    27    1
    18    27    28   ar
    19    28    29   ar
    20    29    30   ar
    21    30    31    1
    22    30    32   ar
    23    32    33   ar
    24    23    24   ar
    25    24    25   ar
    26     3     4    1
    27     4     5    1
    28     5     6    2
    29     6     7    1
    30     7     8    2
    31     8     9    1
    32     9    10    1
    33    10    11    2
    34    11    12    1
    35    12    13    2
    36    36    37   ar
    37    37    38   ar
    38    38    34   ar
    39     6     1    1
    40    13     8    1
    41    20    15   ar
    42    25    21   ar
    43    13     5    1
    44    33    27   ar
    45     2    14    1
    46    25    26    1
@<TRIPOS>MOLECULE
*****
 40 46 0 0 0
SMALL
GASTEIGER

@<TRIPOS>ATOM
      1 C         142.4683  139.9110  159.4882 C.3     1  UNL1        0.1706
      2 N         143.2017  140.3313  158.2491 N.3     1  UNL1       -0.2797
      3 C         144.1172  141.5189  158.2859 C.3     1  UNL1        0.1167
      4 C         144.2993  142.2863  159.5619 C.3     1  UNL1        0.0511
      5 C         143.5659  141.8660  160.8010 C.2     1  UNL1       -0.0037
      6 C         142.6504  140.6784  160.7642 C.2     1  UNL1        0.0800
      7 N         142.0648  140.5020  162.1338 N.2     1  UNL1       -0.2519
      8 C         142.6183  141.5806  163.0171 C.2     1  UNL1        0.0627
      9 C         142.3975  141.9041  164.4650 C.3     1  UNL1        0.0717
     10 C         143.1044  143.0705  165.0892 C.2     1  UNL1       -0.0198
     11 C         144.0321  143.9135  164.2655 C.2     1  UNL1       -0.0042
     12 C         144.2530  143.5901  162.8175 C.2     1  UNL1        0.0006
     13 C         143.5461  142.4236  162.1934 C.2     1  UNL1        0.0111
     14 H         142.4946  140.5264  157.5403 H       1  UNL1        0.1246
     15 C         141.5624  139.1301  160.3935 C.ar    1  UNL1        0.2478
     16 N         141.9514  137.9360  161.2137 N.ar    1  UNL1       -0.1096
     17 N         140.7377  137.4741  161.9646 N.ar    1  UNL1       -0.1116
     18 C         139.5987  138.3828  161.6084 C.ar    1  UNL1        0.2267
     19 C         138.1962  138.2851  162.1314 C.3     1  UNL1        0.0967
     20 O         140.1083  139.4062  160.6374 O.2     1  UNL1       -0.4213
     21 C         144.8507  141.9392  157.0467 C.ar    1  UNL1        0.1319
     22 N         146.3340  141.8714  156.8345 N.ar    1  UNL1       -0.2282
     23 C         146.6297  142.3914  155.4589 C.ar    1  UNL1        0.1171
     24 C         145.3291  142.7805  154.8210 C.ar    1  UNL1        0.0942
     25 N         144.2296  142.5010  155.8024 N.ar    1  UNL1       -0.3385
     26 H         143.2689  142.6587  155.6555 H       1  UNL1        0.1672
     27 C         147.9876  142.5027  154.8314 C.ar    1  UNL1        0.1006
     28 C         149.1385  141.7195  155.3902 C.ar    1  UNL1        0.0230
     29 C         150.4964  141.8308  154.7628 C.ar    1  UNL1        0.0328
     30 C         150.7034  142.7252  153.5766 C.ar    1  UNL1        0.1592
     31 F         152.0614  142.8365  152.9491 F       1  UNL1       -0.2025
     32 C         149.5526  143.5083  153.0178 C.ar    1  UNL1        0.1284
     33 N         148.1947  143.3971  153.6452 N.ar    1  UNL1       -0.2399
     34 N         141.8637  136.9150  157.0958 N.ar    1  UNL1       -0.2497
     35 C         142.7420  137.6808  158.0404 C.ar    1  UNL1        0.0944
     36 C         141.9716  138.8724  158.5267 C.ar    1  UNL1        0.0439
     37 C         140.6172  138.8431  157.8827 C.ar    1  UNL1        0.1194
     38 N         140.5505  137.6333  156.9983 N.ar    1  UNL1       -0.1679
     39 C         143.2372  134.7130  156.9754 C.3     1  UNL1        0.0284
     40 C         142.2337  135.6525  156.3752 C.3     1  UNL1        0.1276
@<TRIPOS>BOND
     1    39    40    1
     2    40    34    1
     3    34    35   ar
     4    35    36   ar
     5     1    36    1
     6     1    15    1
     7    15    16   ar
     8    16    17   ar
     9    17    18   ar
    10    18    19    1
    11    18    20   ar
    12     1     2    1
    13     2     3    1
    14     3    21    1
    15    21    22   ar
    16    22    23   ar
    17    23    27    1
    18    27    28   ar
    19    28    29   ar
    20    29    30   ar
    21    30    31    1
    22    30    32   ar
    23    32    33   ar
    24    23    24   ar
    25    24    25   ar
    26     3     4    1
    27     4     5    1
    28     5     6    2
    29     6     7    1
    30     7     8    2
    31     8     9    1
    32     9    10    1
    33    10    11    2
    34    11    12    1
    35    12    13    2
    36    36    37   ar
    37    37    38   ar
    38    38    34   ar
    39     6     1    1
    40    13     8    1
    41    20    15   ar
    42    25    21   ar
    43    13     5    1
    44    33    27   ar
    45     2    14    1
    46    25    26    1
@<TRIPOS>MOLECULE
*****
 40 46 0 0 0
SMALL
GASTEIGER

@<TRIPOS>ATOM
      1 C         141.8594  143.7414  159.4620 C.3     1  UNL1        0.1706
      2 N         142.5832  143.3765  158.1999 N.3     1  UNL1       -0.2797
      3 C         143.9344  142.7289  158.2707 C.3     1  UNL1        0.1167
      4 C         144.5618  142.4463  159.6036 C.3     1  UNL1        0.0511
      5 C         143.8380  142.8113  160.8657 C.2     1  UNL1       -0.0037
      6 C         142.4868  143.4588  160.7949 C.2     1  UNL1        0.0800
      7 N         142.0164  143.7041  162.1979 N.2     1  UNL1       -0.2519
      8 C         143.0768  143.2082  163.1358 C.2     1  UNL1        0.0627
      9 C         143.1626  143.1879  164.6332 C.3     1  UNL1        0.0717
     10 C         144.3743  142.6156  165.3072 C.2     1  UNL1       -0.0198
     11 C         145.5002  142.0638  164.4838 C.2     1  UNL1       -0.0042
     12 C         145.4143  142.0842  162.9864 C.2     1  UNL1        0.0006
     13 C         144.2026  142.6564  162.3124 C.2     1  UNL1        0.0111
     14 H         142.6972  144.2382  157.6662 H       1  UNL1        0.1246
     15 C         140.7886  144.2680  160.3709 C.ar    1  UNL1        0.2478
     16 N         140.5121  145.7130  160.6630 N.ar    1  UNL1       -0.1096
     17 N         139.3588  145.7800  161.6199 N.ar    1  UNL1       -0.1116
     18 C         138.9227  144.3764  161.9192 C.ar    1  UNL1        0.2267
     19 C         137.7999  143.9774  162.8304 C.3     1  UNL1        0.0967
     20 O         139.8063  143.4419  161.1472 O.2     1  UNL1       -0.4213
     21 C         144.6582  142.3639  157.0085 C.ar    1  UNL1        0.1319
     22 N         146.1455  142.3627  156.8141 N.ar    1  UNL1       -0.2282
     23 C         146.4284  141.9342  155.4047 C.ar    1  UNL1        0.1171
     24 C         145.1159  141.6705  154.7282 C.ar    1  UNL1        0.0942
     25 N         144.0218  141.9361  155.7194 N.ar    1  UNL1       -0.3385
     26 H         143.0557  141.8456  155.5531 H       1  UNL1        0.1672
     27 C         147.7856  141.7939  154.7814 C.ar    1  UNL1        0.1006
     28 C         147.9242  141.7502  153.2884 C.ar    1  UNL1        0.0230
     29 C         149.2813  141.6099  152.6651 C.ar    1  UNL1        0.0328
     30 C         150.4997  141.5133  153.5346 C.ar    1  UNL1        0.1592
     31 F         151.8569  141.3730  152.9113 F       1  UNL1       -0.2025
     32 C         150.3610  141.5570  155.0276 C.ar    1  UNL1        0.1284
     33 N         149.0039  141.6973  155.6509 N.ar    1  UNL1       -0.2399
     34 N         139.6862  145.5763  156.8209 N.ar    1  UNL1       -0.2497
     35 C         140.8616  145.5374  157.7521 C.ar    1  UNL1        0.0944
     36 C         140.8601  144.2069  158.4448 C.ar    1  UNL1        0.0439
     37 C         139.6840  143.4236  157.9417 C.ar    1  UNL1        0.1194
     38 N         138.9584  144.2700  156.9380 N.ar    1  UNL1       -0.1679
     39 C         140.2455  147.1781  154.8533 C.3     1  UNL1        0.0284
     40 C         139.3055  146.7208  155.9290 C.3     1  UNL1        0.1276
@<TRIPOS>BOND
     1    39    40    1
     2    40    34    1
     3    34    35   ar
     4    35    36   ar
     5     1    36    1
     6     1    15    1
     7    15    16   ar
     8    16    17   ar
     9    17    18   ar
    10    18    19    1
    11    18    20   ar
    12     1     2    1
    13     2     3    1
    14     3    21    1
    15    21    22   ar
    16    22    23   ar
    17    23    27    1
    18    27    28   ar
    19    28    29   ar
    20    29    30   ar
    21    30    31    1
    22    30    32   ar
    23    32    33   ar
    24    23    24   ar
    25    24    25   ar
    26     3     4    1
    27     4     5    1
    28     5     6    2
    29     6     7    1
    30     7     8    2
    31     8     9    1
    32     9    10    1
    33    10    11    2
    34    11    12    1
    35    12    13    2
    36    36    37   ar
    37    37    38   ar
    38    38    34   ar
    39     6     1    1
    40    13     8    1
    41    20    15   ar
    42    25    21   ar
    43    13     5    1
    44    33    27   ar
    45     2    14    1
    46    25    26    1
