@<TRIPOS>MOLECULE
*****
 32 37 0 0 0
SMALL
GASTEIGER

@<TRIPOS>ATOM
      1 C         143.9963  130.6267  154.5463 C.2     1  UNL1       -0.0198
      2 C         144.8033  131.1130  155.7133 C.2     1  UNL1       -0.0042
      3 C         144.4950  132.4421  156.3366 C.2     1  UNL1        0.0006
      4 C         143.3798  133.2849  155.7927 C.2     1  UNL1        0.0111
      5 C         142.8475  134.6278  156.1969 C.2     1  UNL1       -0.0044
      6 C         141.7114  134.9714  155.2797 C.2     1  UNL1        0.0689
      7 N         141.5416  133.8409  154.3085 N.2     1  UNL1       -0.2526
      8 C         142.5727  132.7986  154.6257 C.2     1  UNL1        0.0627
      9 C         142.8810  131.4695  154.0024 C.3     1  UNL1        0.0717
     10 C         140.9784  136.2693  155.4472 C.3     1  UNL1        0.0947
     11 N         141.3814  137.2237  156.5321 N.3     1  UNL1       -0.2887
     12 C         142.5174  136.8801  157.4494 C.3     1  UNL1        0.1161
     13 C         143.2505  135.5821  157.2818 C.3     1  UNL1        0.0510
     14 H         140.5602  137.3645  157.1204 H       1  UNL1        0.1239
     15 C         139.8424  136.6129  154.5300 C.3     1  UNL1        0.0202
     16 C         138.5978  137.2431  155.0811 C.3     1  UNL1        0.0017
     17 C         137.4618  137.5868  154.1638 C.3     1  UNL1        0.0001
     18 C         137.5704  137.3001  152.6955 C.3     1  UNL1        0.0000
     19 C         138.8150  136.6699  152.1444 C.3     1  UNL1        0.0001
     20 C         139.9510  136.3262  153.0617 C.3     1  UNL1        0.0017
     21 C         142.9204  137.8343  158.5342 C.ar    1  UNL1        0.1318
     22 N         142.8515  137.5722  160.0095 N.ar    1  UNL1       -0.2298
     23 C         143.3516  138.7942  160.7213 C.ar    1  UNL1        0.0997
     24 C         143.7296  139.8116  159.6859 C.ar    1  UNL1        0.0927
     25 N         143.4631  139.2184  158.3343 N.ar    1  UNL1       -0.3386
     26 H         143.6173  139.6599  157.4679 H       1  UNL1        0.1672
     27 C         143.4555  138.9682  162.2076 C.ar    1  UNL1        0.0223
     28 C         144.5048  139.8711  162.7854 C.ar    1  UNL1        0.0222
     29 C         144.6086  140.0451  164.2716 C.ar    1  UNL1        0.0989
     30 N         143.6633  139.3164  165.1801 N.ar    1  UNL1       -0.2423
     31 C         142.6140  138.4135  164.6022 C.ar    1  UNL1        0.0989
     32 C         142.5102  138.2394  163.1159 C.ar    1  UNL1        0.0222
@<TRIPOS>BOND
     1     1     2    2
     2     2     3    1
     3     3     4    2
     4     4     5    1
     5     5     6    2
     6     6     7    1
     7     7     8    2
     8     8     9    1
     9     6    10    1
    10    10    15    1
    11    15    16    1
    12    16    17    1
    13    17    18    1
    14    18    19    1
    15    19    20    1
    16    10    11    1
    17    11    12    1
    18    12    21    1
    19    21    22   ar
    20    22    23   ar
    21    23    27    1
    22    27    28   ar
    23    28    29   ar
    24    29    30   ar
    25    30    31   ar
    26    31    32   ar
    27    23    24   ar
    28    24    25   ar
    29    12    13    1
    30     9     1    1
    31    20    15    1
    32    25    21   ar
    33     8     4    1
    34    32    27   ar
    35    13     5    1
    36    11    14    1
    37    25    26    1
@<TRIPOS>MOLECULE
*****
 32 37 0 0 0
SMALL
GASTEIGER

@<TRIPOS>ATOM
      1 C         140.3321  145.7461  158.0929 C.2     1  UNL1       -0.0198
      2 C         140.1608  144.8852  156.8765 C.2     1  UNL1       -0.0042
      3 C         140.7591  143.5102  156.8406 C.2     1  UNL1        0.0006
      4 C         141.5285  142.9959  158.0210 C.2     1  UNL1        0.0111
      5 C         142.2266  141.6925  158.2736 C.2     1  UNL1       -0.0044
      6 C         142.8293  141.7478  159.6461 C.2     1  UNL1        0.0689
      7 N         142.5037  143.0854  160.2418 N.2     1  UNL1       -0.2526
      8 C         141.6997  143.8568  159.2373 C.2     1  UNL1        0.0627
      9 C         141.1015  145.2319  159.2733 C.3     1  UNL1        0.0717
     10 C         143.5967  140.5730  160.1761 C.3     1  UNL1        0.0947
     11 N         143.7615  139.3429  159.3336 N.3     1  UNL1       -0.2887
     12 C         143.1588  139.2876  157.9611 C.3     1  UNL1        0.1161
     13 C         142.3913  140.4625  157.4311 C.3     1  UNL1        0.0510
     14 H         143.3611  138.5680  159.8625 H       1  UNL1        0.1239
     15 C         144.1993  140.6283  161.5485 C.3     1  UNL1        0.0202
     16 C         145.0266  141.8109  161.9573 C.3     1  UNL1        0.0017
     17 C         145.6293  141.8662  163.3298 C.3     1  UNL1        0.0001
     18 C         145.4047  140.7389  164.2935 C.3     1  UNL1        0.0000
     19 C         144.5774  139.5563  163.8847 C.3     1  UNL1        0.0001
     20 C         143.9747  139.5010  162.5122 C.3     1  UNL1        0.0017
     21 C         143.3235  138.0575  157.1186 C.ar    1  UNL1        0.1318
     22 N         142.7034  136.7177  157.3838 N.ar    1  UNL1       -0.2298
     23 C         143.1339  135.7835  156.2921 C.ar    1  UNL1        0.0997
     24 C         144.0201  136.5459  155.3522 C.ar    1  UNL1        0.0927
     25 N         144.1373  137.9513  155.8630 N.ar    1  UNL1       -0.3386
     26 H         144.6570  138.6767  155.4472 H       1  UNL1        0.1672
     27 C         142.7463  134.3402  156.1629 C.ar    1  UNL1        0.0223
     28 C         143.4112  133.3053  157.0214 C.ar    1  UNL1        0.0222
     29 C         143.0236  131.8621  156.8922 C.ar    1  UNL1        0.0989
     30 N         141.9711  131.4536  155.9047 N.ar    1  UNL1       -0.2423
     31 C         141.3061  132.4885  155.0462 C.ar    1  UNL1        0.0989
     32 C         141.6938  133.9318  155.1753 C.ar    1  UNL1        0.0222
@<TRIPOS>BOND
     1     1     2    2
     2     2     3    1
     3     3     4    2
     4     4     5    1
     5     5     6    2
     6     6     7    1
     7     7     8    2
     8     8     9    1
     9     6    10    1
    10    10    15    1
    11    15    16    1
    12    16    17    1
    13    17    18    1
    14    18    19    1
    15    19    20    1
    16    10    11    1
    17    11    12    1
    18    12    21    1
    19    21    22   ar
    20    22    23   ar
    21    23    27    1
    22    27    28   ar
    23    28    29   ar
    24    29    30   ar
    25    30    31   ar
    26    31    32   ar
    27    23    24   ar
    28    24    25   ar
    29    12    13    1
    30     9     1    1
    31    20    15    1
    32    25    21   ar
    33     8     4    1
    34    32    27   ar
    35    13     5    1
    36    11    14    1
    37    25    26    1
@<TRIPOS>MOLECULE
*****
 32 37 0 0 0
SMALL
GASTEIGER

@<TRIPOS>ATOM
      1 C         144.1363  144.5068  164.6100 C.2     1  UNL1       -0.0198
      2 C         143.8915  144.9279  163.1914 C.2     1  UNL1       -0.0042
      3 C         142.8252  144.2518  162.3816 C.2     1  UNL1        0.0006
      4 C         142.0037  143.1544  162.9904 C.2     1  UNL1        0.0111
      5 C         140.8915  142.3107  162.4417 C.2     1  UNL1       -0.0044
      6 C         140.4488  141.3680  163.5213 C.2     1  UNL1        0.0689
      7 N         141.2874  141.6291  164.7372 N.2     1  UNL1       -0.2526
      8 C         142.2484  142.7332  164.4091 C.2     1  UNL1        0.0627
      9 C         143.3147  143.4094  165.2189 C.3     1  UNL1        0.0717
     10 C         139.3392  140.3937  163.2576 C.3     1  UNL1        0.0947
     11 N         138.6723  140.3620  161.9144 N.3     1  UNL1       -0.2887
     12 C         139.1150  141.3046  160.8348 C.3     1  UNL1        0.1161
     13 C         140.2246  142.2790  161.0985 C.3     1  UNL1        0.0510
     14 H         137.6809  140.5413  162.0735 H       1  UNL1        0.1239
     15 C         138.8965  139.4511  164.3371 C.3     1  UNL1        0.0202
     16 C         139.0893  137.9732  164.1678 C.3     1  UNL1        0.0017
     17 C         138.6466  137.0305  165.2474 C.3     1  UNL1        0.0001
     18 C         138.0111  137.5658  166.4963 C.3     1  UNL1        0.0000
     19 C         137.8184  139.0436  166.6656 C.3     1  UNL1        0.0001
     20 C         138.2611  139.9863  165.5860 C.3     1  UNL1        0.0017
     21 C         138.4481  141.2730  159.4916 C.ar    1  UNL1        0.1318
     22 N         138.3940  142.4035  158.5071 N.ar    1  UNL1       -0.2298
     23 C         137.6307  141.9344  157.3041 C.ar    1  UNL1        0.0997
     24 C         137.2130  140.5140  157.5450 C.ar    1  UNL1        0.0927
     25 N         137.7182  140.1052  158.8969 N.ar    1  UNL1       -0.3386
     26 H         137.5927  139.2250  159.3197 H       1  UNL1        0.1672
     27 C         137.3367  142.7436  156.0758 C.ar    1  UNL1        0.0223
     28 C         136.4923  142.1638  154.9800 C.ar    1  UNL1        0.0222
     29 C         136.1983  142.9730  153.7518 C.ar    1  UNL1        0.0989
     30 N         136.7487  144.3621  153.6192 N.ar    1  UNL1       -0.2423
     31 C         137.5932  144.9419  154.7150 C.ar    1  UNL1        0.0989
     32 C         137.8871  144.1327  155.9433 C.ar    1  UNL1        0.0222
@<TRIPOS>BOND
     1     1     2    2
     2     2     3    1
     3     3     4    2
     4     4     5    1
     5     5     6    2
     6     6     7    1
     7     7     8    2
     8     8     9    1
     9     6    10    1
    10    10    15    1
    11    15    16    1
    12    16    17    1
    13    17    18    1
    14    18    19    1
    15    19    20    1
    16    10    11    1
    17    11    12    1
    18    12    21    1
    19    21    22   ar
    20    22    23   ar
    21    23    27    1
    22    27    28   ar
    23    28    29   ar
    24    29    30   ar
    25    30    31   ar
    26    31    32   ar
    27    23    24   ar
    28    24    25   ar
    29    12    13    1
    30     9     1    1
    31    20    15    1
    32    25    21   ar
    33     8     4    1
    34    32    27   ar
    35    13     5    1
    36    11    14    1
    37    25    26    1
@<TRIPOS>MOLECULE
*****
 32 37 0 0 0
SMALL
GASTEIGER

@<TRIPOS>ATOM
      1 C         142.7697  137.5979  160.0845 C.2     1  UNL1       -0.0198
      2 C         142.7438  137.9973  158.6389 C.2     1  UNL1       -0.0042
      3 C         142.1422  139.3104  158.2342 C.2     1  UNL1        0.0006
      4 C         141.5664  140.2241  159.2751 C.2     1  UNL1        0.0111
      5 C         140.9119  141.5702  159.1778 C.2     1  UNL1       -0.0044
      6 C         140.5332  142.0028  160.5632 C.2     1  UNL1        0.0689
      7 N         140.9537  140.9241  161.5168 N.2     1  UNL1       -0.2526
      8 C         141.5922  139.8247  160.7207 C.2     1  UNL1        0.0627
      9 C         142.1939  138.5116  161.1254 C.3     1  UNL1        0.0717
     10 C         139.8544  143.3232  160.7774 C.3     1  UNL1        0.0947
     11 N         139.5543  144.2110  159.6062 N.3     1  UNL1       -0.2887
     12 C         139.9330  143.7784  158.2207 C.3     1  UNL1        0.1161
     13 C         140.6118  142.4580  158.0065 C.3     1  UNL1        0.0510
     14 H         140.0301  145.0967  159.7785 H       1  UNL1        0.1239
     15 C         139.4758  143.7558  162.1628 C.3     1  UNL1        0.0202
     16 C         138.0587  143.6108  162.6327 C.3     1  UNL1        0.0017
     17 C         137.6800  144.0434  164.0182 C.3     1  UNL1        0.0001
     18 C         138.7183  144.6210  164.9337 C.3     1  UNL1        0.0000
     19 C         140.1354  144.7659  164.4638 C.3     1  UNL1        0.0001
     20 C         140.5141  144.3333  163.0783 C.3     1  UNL1        0.0017
     21 C         139.6329  144.6662  157.0494 C.ar    1  UNL1        0.1318
     22 N         139.7591  146.1606  157.0206 N.ar    1  UNL1       -0.2298
     23 C         139.3581  146.6333  155.6547 C.ar    1  UNL1        0.0997
     24 C         138.9840  145.4312  154.8393 C.ar    1  UNL1        0.0927
     25 N         139.1539  144.2154  155.7014 N.ar    1  UNL1       -0.3386
     26 H         138.9812  143.2849  155.4300 H       1  UNL1        0.1672
     27 C         139.3352  148.0582  155.1864 C.ar    1  UNL1        0.0223
     28 C         138.6451  149.1066  156.0077 C.ar    1  UNL1        0.0222
     29 C         138.6222  150.5314  155.5394 C.ar    1  UNL1        0.0989
     30 N         139.2894  150.9079  154.2498 N.ar    1  UNL1       -0.2423
     31 C         139.9795  149.8595  153.4285 C.ar    1  UNL1        0.0989
     32 C         140.0024  148.4346  153.8968 C.ar    1  UNL1        0.0222
@<TRIPOS>BOND
     1     1     2    2
     2     2     3    1
     3     3     4    2
     4     4     5    1
     5     5     6    2
     6     6     7    1
     7     7     8    2
     8     8     9    1
     9     6    10    1
    10    10    15    1
    11    15    16    1
    12    16    17    1
    13    17    18    1
    14    18    19    1
    15    19    20    1
    16    10    11    1
    17    11    12    1
    18    12    21    1
    19    21    22   ar
    20    22    23   ar
    21    23    27    1
    22    27    28   ar
    23    28    29   ar
    24    29    30   ar
    25    30    31   ar
    26    31    32   ar
    27    23    24   ar
    28    24    25   ar
    29    12    13    1
    30     9     1    1
    31    20    15    1
    32    25    21   ar
    33     8     4    1
    34    32    27   ar
    35    13     5    1
    36    11    14    1
    37    25    26    1
@<TRIPOS>MOLECULE
*****
 32 37 0 0 0
SMALL
GASTEIGER

@<TRIPOS>ATOM
      1 C         137.6074  142.1224  164.0352 C.2     1  UNL1       -0.0198
      2 C         137.8285  140.6535  163.8272 C.2     1  UNL1       -0.0042
      3 C         138.2048  140.1364  162.4704 C.2     1  UNL1        0.0006
      4 C         138.3602  141.0883  161.3216 C.2     1  UNL1        0.0111
      5 C         138.7204  140.8731  159.8815 C.2     1  UNL1       -0.0044
      6 C         138.7220  142.2091  159.1994 C.2     1  UNL1        0.0689
      7 N         138.3627  143.2500  160.2180 N.2     1  UNL1       -0.2526
      8 C         138.1391  142.5572  161.5296 C.2     1  UNL1        0.0627
      9 C         137.7628  143.0743  162.8864 C.3     1  UNL1        0.0717
     10 C         139.0504  142.3052  157.7390 C.3     1  UNL1        0.0947
     11 N         139.3772  141.0653  156.9605 N.3     1  UNL1       -0.2887
     12 C         139.3756  139.7293  157.6425 C.3     1  UNL1        0.1161
     13 C         139.0472  139.6333  159.1031 C.3     1  UNL1        0.0510
     14 H         140.3120  141.1978  156.5746 H       1  UNL1        0.1239
     15 C         139.0520  143.6412  157.0570 C.3     1  UNL1        0.0202
     16 C         138.1266  143.8959  155.9043 C.3     1  UNL1        0.0017
     17 C         138.1282  145.2319  155.2223 C.3     1  UNL1        0.0001
     18 C         139.0552  146.3131  155.6929 C.3     1  UNL1        0.0000
     19 C         139.9806  146.0584  156.8456 C.3     1  UNL1        0.0001
     20 C         139.9790  144.7224  157.5277 C.3     1  UNL1        0.0017
     21 C         139.7023  138.4895  156.8641 C.ar    1  UNL1        0.1318
     22 N         140.8994  137.6093  157.0696 N.ar    1  UNL1       -0.2298
     23 C         140.8263  136.4879  156.0760 C.ar    1  UNL1        0.0997
     24 C         139.5840  136.6751  155.2564 C.ar    1  UNL1        0.0927
     25 N         138.8894  137.9121  155.7435 N.ar    1  UNL1       -0.3386
     26 H         138.0476  138.2804  155.3899 H       1  UNL1        0.1672
     27 C         141.8208  135.3749  155.9280 C.ar    1  UNL1        0.0223
     28 C         142.9167  135.2090  156.9387 C.ar    1  UNL1        0.0222
     29 C         143.9113  134.0960  156.7907 C.ar    1  UNL1        0.0989
     30 N         143.8101  133.1487  155.6320 N.ar    1  UNL1       -0.2423
     31 C         142.7141  133.3146  154.6212 C.ar    1  UNL1        0.0989
     32 C         141.7195  134.4277  154.7693 C.ar    1  UNL1        0.0222
@<TRIPOS>BOND
     1     1     2    2
     2     2     3    1
     3     3     4    2
     4     4     5    1
     5     5     6    2
     6     6     7    1
     7     7     8    2
     8     8     9    1
     9     6    10    1
    10    10    15    1
    11    15    16    1
    12    16    17    1
    13    17    18    1
    14    18    19    1
    15    19    20    1
    16    10    11    1
    17    11    12    1
    18    12    21    1
    19    21    22   ar
    20    22    23   ar
    21    23    27    1
    22    27    28   ar
    23    28    29   ar
    24    29    30   ar
    25    30    31   ar
    26    31    32   ar
    27    23    24   ar
    28    24    25   ar
    29    12    13    1
    30     9     1    1
    31    20    15    1
    32    25    21   ar
    33     8     4    1
    34    32    27   ar
    35    13     5    1
    36    11    14    1
    37    25    26    1
@<TRIPOS>MOLECULE
*****
 32 37 0 0 0
SMALL
GASTEIGER

@<TRIPOS>ATOM
      1 C         138.0620  138.3008  166.9897 C.2     1  UNL1       -0.0198
      2 C         137.9899  137.3830  165.8055 C.2     1  UNL1       -0.0042
      3 C         138.8066  137.6728  164.5812 C.2     1  UNL1        0.0006
      4 C         139.6953  138.8805  164.5410 C.2     1  UNL1        0.0111
      5 C         140.6094  139.4192  163.4807 C.2     1  UNL1       -0.0044
      6 C         141.2464  140.6700  164.0096 C.2     1  UNL1        0.0689
      7 N         140.7260  140.9044  165.3967 N.2     1  UNL1       -0.2526
      8 C         139.7673  139.7984  165.7251 C.2     1  UNL1        0.0627
      9 C         138.9506  139.5085  166.9495 C.3     1  UNL1        0.0717
     10 C         142.2180  141.4339  163.1597 C.3     1  UNL1        0.0947
     11 N         142.5527  140.9471  161.7809 N.3     1  UNL1       -0.2887
     12 C         141.9157  139.6962  161.2520 C.3     1  UNL1        0.1161
     13 C         140.9440  138.9323  162.1019 C.3     1  UNL1        0.0510
     14 H         143.5612  140.7960  161.7587 H       1  UNL1        0.1239
     15 C         142.8550  142.6847  163.6886 C.3     1  UNL1        0.0202
     16 C         143.9019  142.5982  164.7593 C.3     1  UNL1        0.0017
     17 C         144.5390  143.8490  165.2882 C.3     1  UNL1        0.0001
     18 C         144.1291  145.1863  164.7463 C.3     1  UNL1        0.0000
     19 C         143.0822  145.2728  163.6756 C.3     1  UNL1        0.0001
     20 C         142.4451  144.0219  163.1467 C.3     1  UNL1        0.0017
     21 C         142.2503  139.2094  159.8733 C.ar    1  UNL1        0.1318
     22 N         141.8430  137.8933  159.2799 N.ar    1  UNL1       -0.2298
     23 C         142.3920  137.8237  157.8857 C.ar    1  UNL1        0.0997
     24 C         143.1386  139.0967  157.6174 C.ar    1  UNL1        0.0927
     25 N         143.0510  139.9531  158.8457 N.ar    1  UNL1       -0.3386
     26 H         143.4491  140.8465  158.9579 H       1  UNL1        0.1672
     27 C         142.2239  136.6815  156.9280 C.ar    1  UNL1        0.0223
     28 C         141.1647  136.7415  155.8676 C.ar    1  UNL1        0.0222
     29 C         140.9966  135.5994  154.9100 C.ar    1  UNL1        0.0989
     30 N         141.8877  134.3972  155.0126 N.ar    1  UNL1       -0.2423
     31 C         142.9469  134.3371  156.0730 C.ar    1  UNL1        0.0989
     32 C         143.1150  135.4793  157.0307 C.ar    1  UNL1        0.0222
@<TRIPOS>BOND
     1     1     2    2
     2     2     3    1
     3     3     4    2
     4     4     5    1
     5     5     6    2
     6     6     7    1
     7     7     8    2
     8     8     9    1
     9     6    10    1
    10    10    15    1
    11    15    16    1
    12    16    17    1
    13    17    18    1
    14    18    19    1
    15    19    20    1
    16    10    11    1
    17    11    12    1
    18    12    21    1
    19    21    22   ar
    20    22    23   ar
    21    23    27    1
    22    27    28   ar
    23    28    29   ar
    24    29    30   ar
    25    30    31   ar
    26    31    32   ar
    27    23    24   ar
    28    24    25   ar
    29    12    13    1
    30     9     1    1
    31    20    15    1
    32    25    21   ar
    33     8     4    1
    34    32    27   ar
    35    13     5    1
    36    11    14    1
    37    25    26    1
@<TRIPOS>MOLECULE
*****
 32 37 0 0 0
SMALL
GASTEIGER

@<TRIPOS>ATOM
      1 C         140.4233  145.4640  160.1651 C.2     1  UNL1       -0.0198
      2 C         141.0077  145.1653  158.8163 C.2     1  UNL1       -0.0042
      3 C         141.3891  143.7593  158.4588 C.2     1  UNL1        0.0006
      4 C         141.1860  142.6520  159.4501 C.2     1  UNL1        0.0111
      5 C         141.4645  141.1797  159.3813 C.2     1  UNL1       -0.0044
      6 C         141.0522  140.5684  160.6876 C.2     1  UNL1        0.0689
      7 N         140.5189  141.6629  161.5637 N.2     1  UNL1       -0.2526
      8 C         140.6016  142.9507  160.7988 C.2     1  UNL1        0.0627
      9 C         140.2202  144.3567  161.1563 C.3     1  UNL1        0.0717
     10 C         141.2157  139.0941  160.9105 C.3     1  UNL1        0.0947
     11 N         141.7915  138.2310  159.8272 N.3     1  UNL1       -0.2887
     12 C         142.2038  138.8423  158.5209 C.3     1  UNL1        0.1161
     13 C         142.0403  140.3167  158.2980 C.3     1  UNL1        0.0510
     14 H         141.0908  137.5217  159.6122 H       1  UNL1        0.1239
     15 C         140.8034  138.4829  162.2167 C.3     1  UNL1        0.0202
     16 C         139.3484  138.3133  162.5394 C.3     1  UNL1        0.0017
     17 C         138.9361  137.7021  163.8457 C.3     1  UNL1        0.0001
     18 C         139.9788  137.2603  164.8293 C.3     1  UNL1        0.0000
     19 C         141.4339  137.4299  164.5067 C.3     1  UNL1        0.0001
     20 C         141.8462  138.0412  163.2004 C.3     1  UNL1        0.0017
     21 C         142.7796  137.9793  157.4375 C.ar    1  UNL1        0.1318
     22 N         142.3995  136.5576  157.1473 N.ar    1  UNL1       -0.2298
     23 C         143.2216  136.0862  155.9846 C.ar    1  UNL1        0.0997
     24 C         144.1097  137.2165  155.5561 C.ar    1  UNL1        0.0927
     25 N         143.8365  138.3865  156.4541 N.ar    1  UNL1       -0.3386
     26 H         144.2741  139.2672  156.4064 H       1  UNL1        0.1672
     27 C         143.1654  134.7236  155.3599 C.ar    1  UNL1        0.0223
     28 C         142.3835  134.5087  154.0980 C.ar    1  UNL1        0.0222
     29 C         142.3272  133.1462  153.4734 C.ar    1  UNL1        0.0989
     30 N         143.0529  131.9984  154.1105 N.ar    1  UNL1       -0.2423
     31 C         143.8349  132.2133  155.3725 C.ar    1  UNL1        0.0989
     32 C         143.8912  133.5759  155.9971 C.ar    1  UNL1        0.0222
@<TRIPOS>BOND
     1     1     2    2
     2     2     3    1
     3     3     4    2
     4     4     5    1
     5     5     6    2
     6     6     7    1
     7     7     8    2
     8     8     9    1
     9     6    10    1
    10    10    15    1
    11    15    16    1
    12    16    17    1
    13    17    18    1
    14    18    19    1
    15    19    20    1
    16    10    11    1
    17    11    12    1
    18    12    21    1
    19    21    22   ar
    20    22    23   ar
    21    23    27    1
    22    27    28   ar
    23    28    29   ar
    24    29    30   ar
    25    30    31   ar
    26    31    32   ar
    27    23    24   ar
    28    24    25   ar
    29    12    13    1
    30     9     1    1
    31    20    15    1
    32    25    21   ar
    33     8     4    1
    34    32    27   ar
    35    13     5    1
    36    11    14    1
    37    25    26    1
@<TRIPOS>MOLECULE
*****
 32 37 0 0 0
SMALL
GASTEIGER

@<TRIPOS>ATOM
      1 C         140.2866  145.8418  161.4978 C.2     1  UNL1       -0.0198
      2 C         140.3162  145.5075  160.0359 C.2     1  UNL1       -0.0042
      3 C         140.8271  144.1722  159.5820 C.2     1  UNL1        0.0006
      4 C         141.3083  143.1712  160.5901 C.2     1  UNL1        0.0111
      5 C         141.8622  141.7850  160.4428 C.2     1  UNL1       -0.0044
      6 C         142.1750  141.2626  161.8137 C.2     1  UNL1        0.0689
      7 N         141.8144  142.3259  162.8083 N.2     1  UNL1       -0.2526
      8 C         141.2787  143.5055  162.0521 C.2     1  UNL1        0.0627
      9 C         140.7679  144.8408  162.5059 C.3     1  UNL1        0.0717
     10 C         142.7477  139.8862  161.9791 C.3     1  UNL1        0.0947
     11 N         143.0077  139.0321  160.7737 N.3     1  UNL1       -0.2887
     12 C         142.6950  139.5545  159.4028 C.3     1  UNL1        0.1161
     13 C         142.1222  140.9310  159.2374 C.3     1  UNL1        0.0510
     14 H         142.4631  138.1783  160.8947 H       1  UNL1        0.1239
     15 C         143.0605  139.3638  163.3499 C.3     1  UNL1        0.0202
     16 C         144.4550  139.4688  163.8924 C.3     1  UNL1        0.0017
     17 C         144.7677  138.9463  165.2633 C.3     1  UNL1        0.0001
     18 C         143.6860  138.3190  166.0917 C.3     1  UNL1        0.0000
     19 C         142.2915  138.2141  165.5492 C.3     1  UNL1        0.0001
     20 C         141.9787  138.7365  164.1783 C.3     1  UNL1        0.0017
     21 C         142.9550  138.7005  158.1974 C.ar    1  UNL1        0.1318
     22 N         142.6538  137.2364  158.0726 N.ar    1  UNL1       -0.2298
     23 C         143.0745  136.7917  156.7031 C.ar    1  UNL1        0.0997
     24 C         143.6357  137.9810  155.9816 C.ar    1  UNL1        0.0927
     25 N         143.5618  139.1607  156.9051 N.ar    1  UNL1       -0.3386
     26 H         143.8593  140.0763  156.6992 H       1  UNL1        0.1672
     27 C         142.9550  135.4017  156.1520 C.ar    1  UNL1        0.0223
     28 C         142.6623  135.1950  154.6955 C.ar    1  UNL1        0.0222
     29 C         142.5428  133.8051  154.1444 C.ar    1  UNL1        0.0989
     30 N         142.7160  132.6218  155.0498 N.ar    1  UNL1       -0.2423
     31 C         143.0087  132.8285  156.5064 C.ar    1  UNL1        0.0989
     32 C         143.1282  134.2185  157.0575 C.ar    1  UNL1        0.0222
@<TRIPOS>BOND
     1     1     2    2
     2     2     3    1
     3     3     4    2
     4     4     5    1
     5     5     6    2
     6     6     7    1
     7     7     8    2
     8     8     9    1
     9     6    10    1
    10    10    15    1
    11    15    16    1
    12    16    17    1
    13    17    18    1
    14    18    19    1
    15    19    20    1
    16    10    11    1
    17    11    12    1
    18    12    21    1
    19    21    22   ar
    20    22    23   ar
    21    23    27    1
    22    27    28   ar
    23    28    29   ar
    24    29    30   ar
    25    30    31   ar
    26    31    32   ar
    27    23    24   ar
    28    24    25   ar
    29    12    13    1
    30     9     1    1
    31    20    15    1
    32    25    21   ar
    33     8     4    1
    34    32    27   ar
    35    13     5    1
    36    11    14    1
    37    25    26    1
@<TRIPOS>MOLECULE
*****
 32 37 0 0 0
SMALL
GASTEIGER

@<TRIPOS>ATOM
      1 C         138.2528  138.4458  166.7077 C.2     1  UNL1       -0.0198
      2 C         138.3325  137.2854  165.7606 C.2     1  UNL1       -0.0042
      3 C         138.6147  137.5220  164.3065 C.2     1  UNL1        0.0006
      4 C         138.8173  138.9191  163.7995 C.2     1  UNL1        0.0111
      5 C         139.1081  139.4576  162.4301 C.2     1  UNL1       -0.0044
      6 C         139.2081  140.9509  162.5308 C.2     1  UNL1        0.0689
      7 N         138.9792  141.3353  163.9625 N.2     1  UNL1       -0.2526
      8 C         138.7376  140.0795  164.7466 C.2     1  UNL1        0.0627
      9 C         138.4553  139.8429  166.2007 C.3     1  UNL1        0.0717
     10 C         139.4948  141.7676  161.3058 C.3     1  UNL1        0.0947
     11 N         139.6815  141.0911  159.9800 N.3     1  UNL1       -0.2887
     12 C         139.5814  139.5978  159.8793 C.3     1  UNL1        0.1161
     13 C         139.2947  138.7811  161.1044 C.3     1  UNL1        0.0510
     14 H         140.6111  141.3471  159.6471 H       1  UNL1        0.1239
     15 C         139.5949  143.2608  161.4064 C.3     1  UNL1        0.0202
     16 C         140.4162  144.0262  160.4117 C.3     1  UNL1        0.0017
     17 C         140.5163  145.5195  160.5124 C.3     1  UNL1        0.0001
     18 C         139.7950  146.2474  161.6078 C.3     1  UNL1        0.0000
     19 C         138.9737  145.4820  162.6025 C.3     1  UNL1        0.0001
     20 C         138.8736  143.9887  162.5019 C.3     1  UNL1        0.0017
     21 C         139.7681  138.9213  158.5536 C.ar    1  UNL1        0.1318
     22 N         140.8066  137.8888  158.2291 N.ar    1  UNL1       -0.2298
     23 C         140.6293  137.4879  156.7945 C.ar    1  UNL1        0.0997
     24 C         139.4811  138.2727  156.2324 C.ar    1  UNL1        0.0927
     25 N         138.9489  139.1586  157.3196 N.ar    1  UNL1       -0.3386
     26 H         138.1944  139.7856  157.2376 H       1  UNL1        0.1672
     27 C         141.4551  136.4793  156.0524 C.ar    1  UNL1        0.0223
     28 C         142.9102  136.3158  156.3779 C.ar    1  UNL1        0.0222
     29 C         143.7360  135.3073  155.6359 C.ar    1  UNL1        0.0989
     30 N         143.1069  134.4621  154.5682 N.ar    1  UNL1       -0.2423
     31 C         141.6517  134.6256  154.2427 C.ar    1  UNL1        0.0989
     32 C         140.8259  135.6342  154.9848 C.ar    1  UNL1        0.0222
@<TRIPOS>BOND
     1     1     2    2
     2     2     3    1
     3     3     4    2
     4     4     5    1
     5     5     6    2
     6     6     7    1
     7     7     8    2
     8     8     9    1
     9     6    10    1
    10    10    15    1
    11    15    16    1
    12    16    17    1
    13    17    18    1
    14    18    19    1
    15    19    20    1
    16    10    11    1
    17    11    12    1
    18    12    21    1
    19    21    22   ar
    20    22    23   ar
    21    23    27    1
    22    27    28   ar
    23    28    29   ar
    24    29    30   ar
    25    30    31   ar
    26    31    32   ar
    27    23    24   ar
    28    24    25   ar
    29    12    13    1
    30     9     1    1
    31    20    15    1
    32    25    21   ar
    33     8     4    1
    34    32    27   ar
    35    13     5    1
    36    11    14    1
    37    25    26    1
