@<TRIPOS>MOLECULE
*****
 40 42 0 0 0
SMALL
GASTEIGER

@<TRIPOS>ATOM
      1 C         139.7680  140.5924  166.8725 C.ar    1  UNL1        0.0074
      2 C         139.7463  140.1043  168.2906 C.ar    1  UNL1       -0.0006
      3 C         140.0790  141.0433  169.4121 C.ar    1  UNL1        0.0138
      4 C         140.4334  142.4703  169.1153 C.ar    1  UNL1        0.0024
      5 C         140.4551  142.9583  167.6971 C.ar    1  UNL1        0.0144
      6 C         140.1224  142.0194  166.5757 C.ar    1  UNL1        0.0476
      7 N         140.1441  142.5074  165.1574 N.am    1  UNL1       -0.2835
      8 C         141.4467  142.8734  164.5100 C.2     1  UNL1        0.2386
      9 O         142.7277  142.7515  165.2809 O.2     1  UNL1       -0.2739
     10 H         139.3033  142.5875  164.6515 H       1  UNL1        0.1549
     11 C         141.4684  143.3615  163.0917 C.3     1  UNL1        0.1768
     12 C         142.4771  142.8145  162.1257 C.2     1  UNL1       -0.0068
     13 C         142.4987  143.3025  160.7075 C.ar    1  UNL1        0.0155
     14 C         143.5075  142.7556  159.7414 C.ar    1  UNL1        0.0307
     15 C         143.5292  143.2436  158.3232 C.ar    1  UNL1        0.1414
     16 F         144.5379  142.6966  157.3571 F       1  UNL1       -0.2041
     17 C         142.5421  144.2786  157.8711 C.ar    1  UNL1        0.0452
     18 C         141.5333  144.8255  158.8371 C.ar    1  UNL1        0.0624
     19 C         141.5116  144.3375  160.2554 C.ar    1  UNL1        0.0862
     20 N         140.5029  144.8845  161.2214 N.am    1  UNL1       -0.1773
     21 C         140.4813  144.3964  162.6396 C.2     1  UNL1        0.2581
     22 O         139.4725  144.9434  163.6057 O.2     1  UNL1       -0.2721
     23 N         140.5462  145.8605  158.3849 N.pl3   1  UNL1       -0.3302
     24 C         140.3842  146.1542  156.9229 C.3     1  UNL1        0.1086
     25 H         140.0047  146.3470  159.0477 H       1  UNL1        0.1469
     26 C         140.0573  140.5553  170.8303 C.2     1  UNL1        0.0729
     27 O         140.7400  141.3467  171.9063 O.co2   1  UNL1       -0.5446
     28 O         139.3531  139.2759  171.1726 O.co2   1  UNL1       -0.5446
     29 C         139.4352  139.6534  165.7510 C.3     1  UNL1        0.1004
     30 N         140.4650  138.6814  165.2562 N.3     1  UNL1       -0.2689
     31 C         140.0387  137.4540  164.5066 C.3     1  UNL1        0.0724
     32 C         139.3536  137.5863  163.1788 C.3     1  UNL1        0.0173
     33 C         140.1027  138.1325  161.9994 C.3     1  UNL1        0.0014
     34 C         140.5205  140.1462  160.4119 C.3     1  UNL1        0.0000
     35 C         140.1578  139.6132  161.7662 C.3     1  UNL1        0.0000
     36 C         141.9210  138.9367  165.5110 C.3     1  UNL1        0.0724
     37 C         142.8463  139.2123  164.3630 C.3     1  UNL1        0.0173
     38 C         144.2101  139.7817  164.6189 C.3     1  UNL1        0.0014
     39 C         144.9901  140.3948  163.4939 C.3     1  UNL1        0.0000
     40 C         145.7871  141.6439  163.7272 C.3     1  UNL1        0.0000
@<TRIPOS>UNITY_ATOM_ATTR
27 1
charge -1
@<TRIPOS>BOND
     1    34    35    1
     2    35    33    1
     3    33    32    1
     4    32    31    1
     5    31    30    1
     6    30    36    1
     7    36    37    1
     8    37    38    1
     9    38    39    1
    10    39    40    1
    11    30    29    1
    12    29     1    1
    13     1     2   ar
    14     2     3   ar
    15     3    26    1
    16    26    27   ar
    17    26    28   ar
    18     3     4   ar
    19     4     5   ar
    20     5     6   ar
    21     6     7    1
    22     7     8   am
    23     8     9    2
    24     8    11    1
    25    11    12    1
    26    12    13    2
    27    13    14   ar
    28    14    15   ar
    29    15    16    1
    30    15    17   ar
    31    17    18   ar
    32    18    23    1
    33    23    24    1
    34    18    19   ar
    35    19    20    2
    36    20    21    1
    37    21    22    2
    38     6     1   ar
    39    21    11    1
    40    19    13   ar
    41     7    10    1
    42    23    25    1
@<TRIPOS>MOLECULE
*****
 40 42 0 0 0
SMALL
GASTEIGER

@<TRIPOS>ATOM
      1 C         140.0327  140.6951  166.8728 C.ar    1  UNL1        0.0074
      2 C         140.0302  140.2624  168.3090 C.ar    1  UNL1       -0.0006
      3 C         140.1520  141.2843  169.4003 C.ar    1  UNL1        0.0138
      4 C         140.2764  142.7388  169.0554 C.ar    1  UNL1        0.0024
      5 C         140.2790  143.1714  167.6192 C.ar    1  UNL1        0.0144
      6 C         140.1572  142.1496  166.5279 C.ar    1  UNL1        0.0476
      7 N         140.1597  142.5822  165.0916 N.am    1  UNL1       -0.2835
      8 C         141.4133  143.1284  164.4750 C.2     1  UNL1        0.2386
      9 O         142.6644  143.2419  165.2947 O.2     1  UNL1       -0.2739
     10 H         139.3386  142.5077  164.5536 H       1  UNL1        0.1549
     11 C         141.4159  143.5610  163.0387 C.3     1  UNL1        0.1768
     12 C         142.4342  143.0031  162.0892 C.2     1  UNL1       -0.0068
     13 C         142.4368  143.4357  160.6530 C.ar    1  UNL1        0.0155
     14 C         143.4552  142.8778  159.7034 C.ar    1  UNL1        0.0307
     15 C         143.4577  143.3105  158.2672 C.ar    1  UNL1        0.1414
     16 F         144.4761  142.7526  157.3176 F       1  UNL1       -0.2041
     17 C         142.4418  144.3010  157.7805 C.ar    1  UNL1        0.0452
     18 C         141.4235  144.8589  158.7300 C.ar    1  UNL1        0.0624
     19 C         141.4209  144.4263  160.1663 C.ar    1  UNL1        0.0862
     20 N         140.4026  144.9842  161.1158 N.am    1  UNL1       -0.1773
     21 C         140.4000  144.5516  162.5520 C.2     1  UNL1        0.2581
     22 O         139.3816  145.1095  163.5016 O.2     1  UNL1       -0.2721
     23 N         140.4076  145.8495  158.2433 N.pl3   1  UNL1       -0.3302
     24 C         140.2376  146.0880  156.7722 C.3     1  UNL1        0.1086
     25 H         139.8525  146.3431  158.8894 H       1  UNL1        0.1469
     26 C         140.1495  140.8516  170.8366 C.2     1  UNL1        0.0729
     27 O         140.7093  141.7569  171.8935 O.co2   1  UNL1       -0.5446
     28 O         139.5871  139.5138  171.2159 O.co2   1  UNL1       -0.5446
     29 C         139.9109  139.6732  165.7814 C.3     1  UNL1        0.1004
     30 N         141.1282  138.9402  165.3010 N.3     1  UNL1       -0.2689
     31 C         142.4932  139.5113  165.5468 C.3     1  UNL1        0.0724
     32 C         143.7121  138.7615  165.0971 C.3     1  UNL1        0.0173
     33 C         144.8766  139.5046  164.5124 C.3     1  UNL1        0.0014
     34 C         145.6770  141.6389  163.2659 C.3     1  UNL1        0.0000
     35 C         144.7791  140.9820  164.2719 C.3     1  UNL1        0.0000
     36 C         140.9804  137.6360  164.5748 C.3     1  UNL1        0.0724
     37 C         140.2622  137.5875  163.2589 C.3     1  UNL1        0.0173
     38 C         140.9890  137.9376  161.9944 C.3     1  UNL1        0.0014
     39 C         141.6542  139.2750  161.8574 C.3     1  UNL1        0.0000
     40 C         143.0487  139.3668  161.3124 C.3     1  UNL1        0.0000
@<TRIPOS>UNITY_ATOM_ATTR
27 1
charge -1
@<TRIPOS>BOND
     1    34    35    1
     2    35    33    1
     3    33    32    1
     4    32    31    1
     5    31    30    1
     6    30    36    1
     7    36    37    1
     8    37    38    1
     9    38    39    1
    10    39    40    1
    11    30    29    1
    12    29     1    1
    13     1     2   ar
    14     2     3   ar
    15     3    26    1
    16    26    27   ar
    17    26    28   ar
    18     3     4   ar
    19     4     5   ar
    20     5     6   ar
    21     6     7    1
    22     7     8   am
    23     8     9    2
    24     8    11    1
    25    11    12    1
    26    12    13    2
    27    13    14   ar
    28    14    15   ar
    29    15    16    1
    30    15    17   ar
    31    17    18   ar
    32    18    23    1
    33    23    24    1
    34    18    19   ar
    35    19    20    2
    36    20    21    1
    37    21    22    2
    38     6     1   ar
    39    21    11    1
    40    19    13   ar
    41     7    10    1
    42    23    25    1
@<TRIPOS>MOLECULE
*****
 40 42 0 0 0
SMALL
GASTEIGER

@<TRIPOS>ATOM
      1 C         142.4977  139.8402  166.7891 C.ar    1  UNL1        0.0074
      2 C         142.5388  139.4941  168.2480 C.ar    1  UNL1       -0.0006
      3 C         142.8528  140.5542  169.2617 C.ar    1  UNL1        0.0138
      4 C         143.1256  141.9603  168.8165 C.ar    1  UNL1        0.0024
      5 C         143.0845  142.3064  167.3576 C.ar    1  UNL1        0.0144
      6 C         142.7705  141.2464  166.3439 C.ar    1  UNL1        0.0476
      7 N         142.7293  141.5924  164.8849 N.am    1  UNL1       -0.2835
      8 C         141.7800  142.6429  164.3897 C.2     1  UNL1        0.2386
      9 O         140.8718  143.3474  165.3535 O.2     1  UNL1       -0.2739
     10 H         143.3254  141.1301  164.2523 H       1  UNL1        0.1549
     11 C         141.7389  142.9890  162.9307 C.3     1  UNL1        0.1768
     12 C         141.1271  142.0329  161.9501 C.2     1  UNL1       -0.0068
     13 C         141.0859  142.3790  160.4912 C.ar    1  UNL1        0.0155
     14 C         140.4741  141.4230  159.5105 C.ar    1  UNL1        0.0307
     15 C         140.4330  141.7691  158.0516 C.ar    1  UNL1        0.1414
     16 F         139.8212  140.8130  157.0709 F       1  UNL1       -0.2041
     17 C         141.0036  143.0712  157.5733 C.ar    1  UNL1        0.0452
     18 C         141.6154  144.0273  158.5539 C.ar    1  UNL1        0.0624
     19 C         141.6566  143.6812  160.0129 C.ar    1  UNL1        0.0862
     20 N         142.2684  144.6373  160.9935 N.am    1  UNL1       -0.1773
     21 C         142.3095  144.2912  162.4524 C.2     1  UNL1        0.2581
     22 O         142.9213  145.2472  163.4331 O.2     1  UNL1       -0.2721
     23 N         142.1860  145.3294  158.0756 N.pl3   1  UNL1       -0.3302
     24 C         142.1447  145.6756  156.6167 C.3     1  UNL1        0.1086
     25 H         142.5877  145.9569  158.7192 H       1  UNL1        0.1469
     26 C         142.8940  140.2081  170.7207 C.2     1  UNL1        0.0729
     27 O         141.9293  140.8521  171.6718 O.co2   1  UNL1       -0.5446
     28 O         143.8998  139.2180  171.2286 O.co2   1  UNL1       -0.5446
     29 C         142.1837  138.7801  165.7753 C.3     1  UNL1        0.1004
     30 N         140.9151  138.8565  164.9786 N.3     1  UNL1       -0.2689
     31 C         140.9516  138.6710  163.4906 C.3     1  UNL1        0.0724
     32 C         140.0938  137.6240  162.8441 C.3     1  UNL1        0.0173
     33 C         138.7244  137.9793  162.3455 C.3     1  UNL1        0.0014
     34 C         137.4907  139.7776  160.9334 C.3     1  UNL1        0.0000
     35 C         138.5676  138.7416  161.0631 C.3     1  UNL1        0.0000
     36 C         139.6099  139.1186  165.6699 C.3     1  UNL1        0.0724
     37 C         139.0110  140.4936  165.6453 C.3     1  UNL1        0.0173
     38 C         138.1112  140.8997  164.5160 C.3     1  UNL1        0.0014
     39 C         137.7492  142.3431  164.3273 C.3     1  UNL1        0.0000
     40 C         137.7164  142.9341  162.9491 C.3     1  UNL1        0.0000
@<TRIPOS>UNITY_ATOM_ATTR
27 1
charge -1
@<TRIPOS>BOND
     1    34    35    1
     2    35    33    1
     3    33    32    1
     4    32    31    1
     5    31    30    1
     6    30    36    1
     7    36    37    1
     8    37    38    1
     9    38    39    1
    10    39    40    1
    11    30    29    1
    12    29     1    1
    13     1     2   ar
    14     2     3   ar
    15     3    26    1
    16    26    27   ar
    17    26    28   ar
    18     3     4   ar
    19     4     5   ar
    20     5     6   ar
    21     6     7    1
    22     7     8   am
    23     8     9    2
    24     8    11    1
    25    11    12    1
    26    12    13    2
    27    13    14   ar
    28    14    15   ar
    29    15    16    1
    30    15    17   ar
    31    17    18   ar
    32    18    23    1
    33    23    24    1
    34    18    19   ar
    35    19    20    2
    36    20    21    1
    37    21    22    2
    38     6     1   ar
    39    21    11    1
    40    19    13   ar
    41     7    10    1
    42    23    25    1
@<TRIPOS>MOLECULE
*****
 40 42 0 0 0
SMALL
GASTEIGER

@<TRIPOS>ATOM
      1 C         139.5665  140.4815  166.7254 C.ar    1  UNL1        0.0074
      2 C         139.5402  140.1250  168.1821 C.ar    1  UNL1       -0.0006
      3 C         140.5406  140.7316  169.1208 C.ar    1  UNL1        0.0138
      4 C         141.5673  141.6946  168.6028 C.ar    1  UNL1        0.0024
      5 C         141.5937  142.0511  167.1460 C.ar    1  UNL1        0.0144
      6 C         140.5933  141.4446  166.2073 C.ar    1  UNL1        0.0476
      7 N         140.6196  141.8010  164.7505 N.am    1  UNL1       -0.2835
      8 C         139.9241  143.0397  164.2688 C.2     1  UNL1        0.2386
      9 O         139.2023  143.9219  165.2438 O.2     1  UNL1       -0.2739
     10 H         141.0933  141.2220  164.1105 H       1  UNL1        0.1549
     11 C         139.9504  143.3961  162.8119 C.3     1  UNL1        0.1768
     12 C         139.2637  142.5143  161.8115 C.2     1  UNL1       -0.0068
     13 C         139.2901  142.8708  160.3548 C.ar    1  UNL1        0.0155
     14 C         138.6034  141.9890  159.3543 C.ar    1  UNL1        0.0307
     15 C         138.6297  142.3455  157.8975 C.ar    1  UNL1        0.1414
     16 F         137.9430  141.4637  156.8970 F       1  UNL1       -0.2041
     17 C         139.3427  143.5838  157.4412 C.ar    1  UNL1        0.0452
     18 C         140.0294  144.4656  158.4416 C.ar    1  UNL1        0.0624
     19 C         140.0031  144.1091  159.8984 C.ar    1  UNL1        0.0862
     20 N         140.6898  144.9909  160.8988 N.am    1  UNL1       -0.1773
     21 C         140.6634  144.6344  162.3556 C.2     1  UNL1        0.2581
     22 O         141.3501  145.5162  163.3561 O.2     1  UNL1       -0.2721
     23 N         140.7424  145.7039  157.9852 N.pl3   1  UNL1       -0.3302
     24 C         142.1843  145.6321  157.5780 C.3     1  UNL1        0.1086
     25 H         140.2640  146.5637  157.9530 H       1  UNL1        0.1469
     26 C         140.5143  140.3751  170.5777 C.2     1  UNL1        0.0729
     27 O         139.4377  139.4768  171.1106 O.co2   1  UNL1       -0.5446
     28 O         141.5645  140.9169  171.5015 O.co2   1  UNL1       -0.5446
     29 C         138.5661  139.8750  165.7865 C.3     1  UNL1        0.1004
     30 N         139.0273  138.9778  164.6764 N.3     1  UNL1       -0.2689
     31 C         138.5131  139.1844  163.2825 C.3     1  UNL1        0.0724
     32 C         138.5673  138.0618  162.2891 C.3     1  UNL1        0.0173
     33 C         139.3176  138.2350  161.0018 C.3     1  UNL1        0.0014
     34 C         141.9121  138.1001  161.0165 C.3     1  UNL1        0.0000
     35 C         140.6539  138.9164  160.9985 C.3     1  UNL1        0.0000
     36 C         140.0027  137.8741  164.9602 C.3     1  UNL1        0.0724
     37 C         141.4533  138.0496  164.6210 C.3     1  UNL1        0.0173
     38 C         142.4403  138.3854  165.6993 C.3     1  UNL1        0.0014
     39 C         143.7309  139.0652  165.3496 C.3     1  UNL1        0.0000
     40 C         143.7648  140.0951  164.2596 C.3     1  UNL1        0.0000
@<TRIPOS>UNITY_ATOM_ATTR
27 1
charge -1
@<TRIPOS>BOND
     1    34    35    1
     2    35    33    1
     3    33    32    1
     4    32    31    1
     5    31    30    1
     6    30    36    1
     7    36    37    1
     8    37    38    1
     9    38    39    1
    10    39    40    1
    11    30    29    1
    12    29     1    1
    13     1     2   ar
    14     2     3   ar
    15     3    26    1
    16    26    27   ar
    17    26    28   ar
    18     3     4   ar
    19     4     5   ar
    20     5     6   ar
    21     6     7    1
    22     7     8   am
    23     8     9    2
    24     8    11    1
    25    11    12    1
    26    12    13    2
    27    13    14   ar
    28    14    15   ar
    29    15    16    1
    30    15    17   ar
    31    17    18   ar
    32    18    23    1
    33    23    24    1
    34    18    19   ar
    35    19    20    2
    36    20    21    1
    37    21    22    2
    38     6     1   ar
    39    21    11    1
    40    19    13   ar
    41     7    10    1
    42    23    25    1
@<TRIPOS>MOLECULE
*****
 40 42 0 0 0
SMALL
GASTEIGER

@<TRIPOS>ATOM
      1 C         140.9759  140.4087  166.8608 C.ar    1  UNL1        0.0074
      2 C         140.7940  140.1073  168.3189 C.ar    1  UNL1       -0.0006
      3 C         140.4724  141.2139  169.2791 C.ar    1  UNL1        0.0138
      4 C         140.3327  142.6220  168.7811 C.ar    1  UNL1        0.0024
      5 C         140.5146  142.9234  167.3231 C.ar    1  UNL1        0.0144
      6 C         140.8362  141.8168  166.3629 C.ar    1  UNL1        0.0476
      7 N         141.0181  142.1181  164.9047 N.am    1  UNL1       -0.2835
      8 C         142.3939  142.3435  164.3514 C.2     1  UNL1        0.2386
      9 O         143.5879  142.2675  165.2562 O.2     1  UNL1       -0.2739
     10 H         140.2344  142.1680  164.3109 H       1  UNL1        0.1549
     11 C         142.5758  142.6449  162.8932 C.3     1  UNL1        0.1768
     12 C         143.1162  141.5921  161.9715 C.2     1  UNL1       -0.0068
     13 C         143.2980  141.8935  160.5134 C.ar    1  UNL1        0.0155
     14 C         143.8384  140.8407  159.5916 C.ar    1  UNL1        0.0307
     15 C         144.0203  141.1422  158.1336 C.ar    1  UNL1        0.1414
     16 F         144.5607  140.0894  157.2117 F       1  UNL1       -0.2041
     17 C         143.6618  142.4963  157.5972 C.ar    1  UNL1        0.0452
     18 C         143.1214  143.5491  158.5189 C.ar    1  UNL1        0.0624
     19 C         142.9395  143.2477  159.9771 C.ar    1  UNL1        0.0862
     20 N         142.3991  144.3005  160.8988 N.am    1  UNL1       -0.1773
     21 C         142.2173  143.9991  162.3569 C.2     1  UNL1        0.2581
     22 O         141.6769  145.0519  163.2787 O.2     1  UNL1       -0.2721
     23 N         142.7629  144.9033  157.9826 N.pl3   1  UNL1       -0.3302
     24 C         142.1693  145.0337  156.6112 C.3     1  UNL1        0.1086
     25 H         142.9172  145.7064  158.5306 H       1  UNL1        0.1469
     26 C         140.2905  140.9126  170.7372 C.2     1  UNL1        0.0729
     27 O         139.6527  139.6233  171.1627 O.co2   1  UNL1       -0.5446
     28 O         140.7465  141.9004  171.7698 O.co2   1  UNL1       -0.5446
     29 C         141.2975  139.3021  165.9006 C.3     1  UNL1        0.1004
     30 N         140.2478  138.8033  164.9523 N.3     1  UNL1       -0.2689
     31 C         140.6478  138.2261  163.6268 C.3     1  UNL1        0.0724
     32 C         139.6223  137.5582  162.7595 C.3     1  UNL1        0.0173
     33 C         139.2857  138.1350  161.4162 C.3     1  UNL1        0.0014
     34 C         140.6243  139.1685  159.4440 C.3     1  UNL1        0.0000
     35 C         140.1121  139.2521  160.8513 C.3     1  UNL1        0.0000
     36 C         138.7981  138.8816  165.3295 C.3     1  UNL1        0.0724
     37 C         138.0197  140.1352  165.0600 C.3     1  UNL1        0.0173
     38 C         137.8700  140.6376  163.6546 C.3     1  UNL1        0.0014
     39 C         137.5393  142.0792  163.4046 C.3     1  UNL1        0.0000
     40 C         137.7148  143.0896  164.4992 C.3     1  UNL1        0.0000
@<TRIPOS>UNITY_ATOM_ATTR
27 1
charge -1
@<TRIPOS>BOND
     1    34    35    1
     2    35    33    1
     3    33    32    1
     4    32    31    1
     5    31    30    1
     6    30    36    1
     7    36    37    1
     8    37    38    1
     9    38    39    1
    10    39    40    1
    11    30    29    1
    12    29     1    1
    13     1     2   ar
    14     2     3   ar
    15     3    26    1
    16    26    27   ar
    17    26    28   ar
    18     3     4   ar
    19     4     5   ar
    20     5     6   ar
    21     6     7    1
    22     7     8   am
    23     8     9    2
    24     8    11    1
    25    11    12    1
    26    12    13    2
    27    13    14   ar
    28    14    15   ar
    29    15    16    1
    30    15    17   ar
    31    17    18   ar
    32    18    23    1
    33    23    24    1
    34    18    19   ar
    35    19    20    2
    36    20    21    1
    37    21    22    2
    38     6     1   ar
    39    21    11    1
    40    19    13   ar
    41     7    10    1
    42    23    25    1
@<TRIPOS>MOLECULE
*****
 40 42 0 0 0
SMALL
GASTEIGER

@<TRIPOS>ATOM
      1 C         140.0688  141.1896  165.7889 C.ar    1  UNL1        0.0074
      2 C         140.0955  141.1886  167.2887 C.ar    1  UNL1       -0.0006
      3 C         139.2808  140.1873  168.0526 C.ar    1  UNL1        0.0138
      4 C         138.4394  139.1870  167.3168 C.ar    1  UNL1        0.0024
      5 C         138.4127  139.1880  165.8171 C.ar    1  UNL1        0.0144
      6 C         139.2274  140.1893  165.0531 C.ar    1  UNL1        0.0476
      7 N         139.2007  140.1903  163.5533 N.am    1  UNL1       -0.2835
      8 C         138.2912  141.1311  162.8200 C.2     1  UNL1        0.2386
      9 O         137.4084  142.0709  163.5865 O.2     1  UNL1       -0.2739
     10 H         139.7801  139.5735  163.0503 H       1  UNL1        0.1549
     11 C         138.2645  141.1321  161.3202 C.3     1  UNL1        0.1768
     12 C         138.7398  142.3362  160.5625 C.2     1  UNL1       -0.0068
     13 C         138.7131  142.3372  159.0627 C.ar    1  UNL1        0.0155
     14 C         139.1883  143.5413  158.3049 C.ar    1  UNL1        0.0307
     15 C         139.1616  143.5423  156.8052 C.ar    1  UNL1        0.1414
     16 F         139.6369  144.7464  156.0473 F       1  UNL1       -0.2041
     17 C         138.6596  142.3392  156.0632 C.ar    1  UNL1        0.0452
     18 C         138.1844  141.1351  156.8210 C.ar    1  UNL1        0.0624
     19 C         138.2111  141.1340  158.3208 C.ar    1  UNL1        0.0862
     20 N         137.7358  139.9299  159.0785 N.am    1  UNL1       -0.1773
     21 C         137.7625  139.9290  160.5783 C.2     1  UNL1        0.2581
     22 O         137.2873  138.7248  161.3361 O.2     1  UNL1       -0.2721
     23 N         137.6824  139.9319  156.0790 N.pl3   1  UNL1       -0.3302
     24 C         138.6540  138.9947  155.4252 C.3     1  UNL1        0.1086
     25 H         136.7152  139.7575  156.0211 H       1  UNL1        0.1469
     26 C         139.3075  140.1863  169.5524 C.2     1  UNL1        0.0729
     27 O         140.5943  140.4415  170.2798 O.co2   1  UNL1       -0.5446
     28 O         138.0475  139.9300  170.3248 O.co2   1  UNL1       -0.5446
     29 C         140.8835  142.1909  165.0249 C.3     1  UNL1        0.1004
     30 N         142.3543  141.9694  164.8306 N.3     1  UNL1       -0.2689
     31 C         142.8357  140.8252  163.9886 C.3     1  UNL1        0.0724
     32 C         143.9795  139.9767  164.4595 C.3     1  UNL1        0.0173
     33 C         143.7248  138.8143  165.3728 C.3     1  UNL1        0.0014
     34 C         141.6220  137.4530  164.6837 C.3     1  UNL1        0.0000
     35 C         142.3187  138.3690  165.6457 C.3     1  UNL1        0.0000
     36 C         143.3437  142.8923  165.4784 C.3     1  UNL1        0.0724
     37 C         144.2998  143.6800  164.6325 C.3     1  UNL1        0.0173
     38 C         143.7778  144.6776  163.6415 C.3     1  UNL1        0.0014
     39 C         142.4623  145.3567  163.8830 C.3     1  UNL1        0.0000
     40 C         141.3404  145.1891  162.9015 C.3     1  UNL1        0.0000
@<TRIPOS>UNITY_ATOM_ATTR
27 1
charge -1
@<TRIPOS>BOND
     1    34    35    1
     2    35    33    1
     3    33    32    1
     4    32    31    1
     5    31    30    1
     6    30    36    1
     7    36    37    1
     8    37    38    1
     9    38    39    1
    10    39    40    1
    11    30    29    1
    12    29     1    1
    13     1     2   ar
    14     2     3   ar
    15     3    26    1
    16    26    27   ar
    17    26    28   ar
    18     3     4   ar
    19     4     5   ar
    20     5     6   ar
    21     6     7    1
    22     7     8   am
    23     8     9    2
    24     8    11    1
    25    11    12    1
    26    12    13    2
    27    13    14   ar
    28    14    15   ar
    29    15    16    1
    30    15    17   ar
    31    17    18   ar
    32    18    23    1
    33    23    24    1
    34    18    19   ar
    35    19    20    2
    36    20    21    1
    37    21    22    2
    38     6     1   ar
    39    21    11    1
    40    19    13   ar
    41     7    10    1
    42    23    25    1
@<TRIPOS>MOLECULE
*****
 40 42 0 0 0
SMALL
GASTEIGER

@<TRIPOS>ATOM
      1 C         140.2373  141.6102  166.0732 C.ar    1  UNL1        0.0074
      2 C         140.2702  141.6670  167.5717 C.ar    1  UNL1       -0.0006
      3 C         139.6006  140.5937  168.3777 C.ar    1  UNL1        0.0138
      4 C         138.8982  139.4637  167.6852 C.ar    1  UNL1        0.0024
      5 C         138.8653  139.4069  166.1867 C.ar    1  UNL1        0.0144
      6 C         139.5348  140.4802  165.3807 C.ar    1  UNL1        0.0476
      7 N         139.5020  140.4235  163.8821 N.am    1  UNL1       -0.2835
      8 C         138.4724  141.2081  163.1242 C.2     1  UNL1        0.2386
      9 O         137.4757  142.0495  163.8650 O.2     1  UNL1       -0.2739
     10 H         140.1561  139.8712  163.3959 H       1  UNL1        0.1549
     11 C         138.4395  141.1514  161.6256 C.3     1  UNL1        0.1768
     12 C         138.8953  142.3319  160.8202 C.2     1  UNL1       -0.0068
     13 C         138.8624  142.2751  159.3217 C.ar    1  UNL1        0.0155
     14 C         139.3182  143.4557  158.5162 C.ar    1  UNL1        0.0307
     15 C         139.2853  143.3989  157.0177 C.ar    1  UNL1        0.1414
     16 F         139.7411  144.5794  156.2122 F       1  UNL1       -0.2041
     17 C         138.7966  142.1617  156.3246 C.ar    1  UNL1        0.0452
     18 C         138.3409  140.9812  157.1299 C.ar    1  UNL1        0.0624
     19 C         138.3738  141.0379  158.6286 C.ar    1  UNL1        0.0862
     20 N         137.9180  139.8574  159.4339 N.am    1  UNL1       -0.1773
     21 C         137.9509  139.9142  160.9325 C.2     1  UNL1        0.2581
     22 O         137.4951  138.7336  161.7379 O.2     1  UNL1       -0.2721
     23 N         137.8522  139.7439  156.4368 N.pl3   1  UNL1       -0.3302
     24 C         138.0651  139.5771  154.9614 C.3     1  UNL1        0.1086
     25 H         137.3918  139.0414  156.9502 H       1  UNL1        0.1469
     26 C         139.6335  140.6504  169.8764 C.2     1  UNL1        0.0729
     27 O         139.2813  141.9238  170.5866 O.co2   1  UNL1       -0.5446
     28 O         140.0186  139.4338  170.6647 O.co2   1  UNL1       -0.5446
     29 C         140.9069  142.6835  165.2671 C.3     1  UNL1        0.1004
     30 N         142.1150  142.3569  164.4401 N.3     1  UNL1       -0.2689
     31 C         142.0688  142.5162  162.9494 C.3     1  UNL1        0.0724
     32 C         142.5254  143.7977  162.3175 C.3     1  UNL1        0.0173
     33 C         141.8652  145.0930  162.6870 C.3     1  UNL1        0.0014
     34 C         139.2914  145.1173  163.0399 C.3     1  UNL1        0.0000
     35 C         140.4876  145.4035  162.1814 C.3     1  UNL1        0.0000
     36 C         143.3693  141.8710  165.1041 C.3     1  UNL1        0.0724
     37 C         143.9009  140.5032  164.7933 C.3     1  UNL1        0.0173
     38 C         142.9579  139.3440  164.6623 C.3     1  UNL1        0.0014
     39 C         142.5921  138.5346  165.8710 C.3     1  UNL1        0.0000
     40 C         142.9261  139.0417  167.2425 C.3     1  UNL1        0.0000
@<TRIPOS>UNITY_ATOM_ATTR
27 1
charge -1
@<TRIPOS>BOND
     1    34    35    1
     2    35    33    1
     3    33    32    1
     4    32    31    1
     5    31    30    1
     6    30    36    1
     7    36    37    1
     8    37    38    1
     9    38    39    1
    10    39    40    1
    11    30    29    1
    12    29     1    1
    13     1     2   ar
    14     2     3   ar
    15     3    26    1
    16    26    27   ar
    17    26    28   ar
    18     3     4   ar
    19     4     5   ar
    20     5     6   ar
    21     6     7    1
    22     7     8   am
    23     8     9    2
    24     8    11    1
    25    11    12    1
    26    12    13    2
    27    13    14   ar
    28    14    15   ar
    29    15    16    1
    30    15    17   ar
    31    17    18   ar
    32    18    23    1
    33    23    24    1
    34    18    19   ar
    35    19    20    2
    36    20    21    1
    37    21    22    2
    38     6     1   ar
    39    21    11    1
    40    19    13   ar
    41     7    10    1
    42    23    25    1
@<TRIPOS>MOLECULE
*****
 40 42 0 0 0
SMALL
GASTEIGER

@<TRIPOS>ATOM
      1 C         141.8706  139.8647  166.5114 C.ar    1  UNL1        0.0074
      2 C         141.6192  139.6353  167.9723 C.ar    1  UNL1       -0.0006
      3 C         140.9733  140.7071  168.7994 C.ar    1  UNL1        0.0138
      4 C         140.5789  142.0082  168.1657 C.ar    1  UNL1        0.0024
      5 C         140.8304  142.2376  166.7049 C.ar    1  UNL1        0.0144
      6 C         141.4762  141.1658  165.8777 C.ar    1  UNL1        0.0476
      7 N         141.7276  141.3952  164.4168 N.am    1  UNL1       -0.2835
      8 C         142.9383  142.1631  163.9756 C.2     1  UNL1        0.2386
      9 O         143.8975  142.7016  164.9954 O.2     1  UNL1       -0.2739
     10 H         141.0981  141.0417  163.7475 H       1  UNL1        0.1549
     11 C         143.1897  142.3924  162.5147 C.3     1  UNL1        0.1768
     12 C         142.0841  142.8921  161.6328 C.2     1  UNL1       -0.0068
     13 C         142.3356  143.1214  160.1719 C.ar    1  UNL1        0.0155
     14 C         141.2300  143.6211  159.2899 C.ar    1  UNL1        0.0307
     15 C         141.4814  143.8504  157.8291 C.ar    1  UNL1        0.1414
     16 F         140.3758  144.3501  156.9470 F       1  UNL1       -0.2041
     17 C         142.8386  143.5800  157.2501 C.ar    1  UNL1        0.0452
     18 C         143.9442  143.0804  158.1321 C.ar    1  UNL1        0.0624
     19 C         143.6927  142.8510  159.5930 C.ar    1  UNL1        0.0862
     20 N         144.7984  142.3513  160.4750 N.am    1  UNL1       -0.1773
     21 C         144.5469  142.1220  161.9358 C.2     1  UNL1        0.2581
     22 O         145.6525  141.6223  162.8178 O.2     1  UNL1       -0.2721
     23 N         145.3013  142.8100  157.5532 N.pl3   1  UNL1       -0.3302
     24 C         145.5551  141.5388  156.7985 C.3     1  UNL1        0.1086
     25 H         146.0255  143.4669  157.6686 H       1  UNL1        0.1469
     26 C         140.7219  140.4777  170.2604 C.2     1  UNL1        0.0729
     27 O         141.7042  140.9773  171.2779 O.co2   1  UNL1       -0.5446
     28 O         139.4881  139.7489  170.7037 O.co2   1  UNL1       -0.5446
     29 C         142.5165  138.7929  165.6842 C.3     1  UNL1        0.1004
     30 N         141.7269  138.0876  164.6216 N.3     1  UNL1       -0.2689
     31 C         142.1377  138.1994  163.1834 C.3     1  UNL1        0.0724
     32 C         143.5279  138.6402  162.8325 C.3     1  UNL1        0.0173
     33 C         144.0567  138.4208  161.4460 C.3     1  UNL1        0.0014
     34 C         143.3119  139.3371  159.1318 C.3     1  UNL1        0.0000
     35 C         143.1141  138.3919  160.2796 C.3     1  UNL1        0.0000
     36 C         140.5264  137.2704  164.9974 C.3     1  UNL1        0.0724
     37 C         139.1564  137.7123  164.5759 C.3     1  UNL1        0.0173
     38 C         138.7720  139.1589  164.6732 C.3     1  UNL1        0.0014
     39 C         138.1499  139.6866  165.9320 C.3     1  UNL1        0.0000
     40 C         137.8585  138.7561  167.0718 C.3     1  UNL1        0.0000
@<TRIPOS>UNITY_ATOM_ATTR
27 1
charge -1
@<TRIPOS>BOND
     1    34    35    1
     2    35    33    1
     3    33    32    1
     4    32    31    1
     5    31    30    1
     6    30    36    1
     7    36    37    1
     8    37    38    1
     9    38    39    1
    10    39    40    1
    11    30    29    1
    12    29     1    1
    13     1     2   ar
    14     2     3   ar
    15     3    26    1
    16    26    27   ar
    17    26    28   ar
    18     3     4   ar
    19     4     5   ar
    20     5     6   ar
    21     6     7    1
    22     7     8   am
    23     8     9    2
    24     8    11    1
    25    11    12    1
    26    12    13    2
    27    13    14   ar
    28    14    15   ar
    29    15    16    1
    30    15    17   ar
    31    17    18   ar
    32    18    23    1
    33    23    24    1
    34    18    19   ar
    35    19    20    2
    36    20    21    1
    37    21    22    2
    38     6     1   ar
    39    21    11    1
    40    19    13   ar
    41     7    10    1
    42    23    25    1
@<TRIPOS>MOLECULE
*****
 40 42 0 0 0
SMALL
GASTEIGER

@<TRIPOS>ATOM
      1 C         140.5184  142.1715  166.8208 C.ar    1  UNL1        0.0074
      2 C         140.4942  142.5174  168.2801 C.ar    1  UNL1       -0.0006
      3 C         139.8645  141.5761  169.2636 C.ar    1  UNL1        0.0138
      4 C         139.2590  140.2889  168.7878 C.ar    1  UNL1        0.0024
      5 C         139.2832  139.9430  167.3285 C.ar    1  UNL1        0.0144
      6 C         139.9129  140.8843  166.3449 C.ar    1  UNL1        0.0476
      7 N         139.9371  140.5384  164.8855 N.am    1  UNL1       -0.2835
      8 C         138.9016  141.1088  163.9623 C.2     1  UNL1        0.2386
      9 O         137.8419  142.0251  164.4984 O.2     1  UNL1       -0.2739
     10 H         140.6326  139.9370  164.5336 H       1  UNL1        0.1549
     11 C         138.9259  140.7630  162.5028 C.3     1  UNL1        0.1768
     12 C         138.6611  141.8239  161.4761 C.2     1  UNL1       -0.0068
     13 C         138.6853  141.4780  160.0168 C.ar    1  UNL1        0.0155
     14 C         138.4206  142.5390  158.9900 C.ar    1  UNL1        0.0307
     15 C         138.4448  142.1931  157.5307 C.ar    1  UNL1        0.1414
     16 F         138.1801  143.2542  156.5039 F       1  UNL1       -0.2041
     17 C         138.7338  140.7863  157.0980 C.ar    1  UNL1        0.0452
     18 C         138.9985  139.7253  158.1247 C.ar    1  UNL1        0.0624
     19 C         138.9743  140.0711  159.5842 C.ar    1  UNL1        0.0862
     20 N         139.2391  139.0102  160.6109 N.am    1  UNL1       -0.1773
     21 C         139.2148  139.3561  162.0702 C.2     1  UNL1        0.2581
     22 O         139.4796  138.2951  163.0970 O.2     1  UNL1       -0.2721
     23 N         139.2875  138.3184  157.6921 N.pl3   1  UNL1       -0.3302
     24 C         139.5325  138.0144  156.2438 C.3     1  UNL1        0.1086
     25 H         139.3164  137.5945  158.3587 H       1  UNL1        0.1469
     26 C         139.8403  141.9220  170.7231 C.2     1  UNL1        0.0729
     27 O         139.2449  143.2221  171.1759 O.co2   1  UNL1       -0.5446
     28 O         140.4114  140.9677  171.7296 O.co2   1  UNL1       -0.5446
     29 C         141.1482  143.1128  165.8372 C.3     1  UNL1        0.1004
     30 N         142.3764  142.6979  165.0828 N.3     1  UNL1       -0.2689
     31 C         143.3928  141.8086  165.7354 C.3     1  UNL1        0.0724
     32 C         143.3600  140.3286  165.4934 C.3     1  UNL1        0.0173
     33 C         143.1414  139.3859  166.6396 C.3     1  UNL1        0.0014
     34 C         142.5816  138.9987  169.1469 C.3     1  UNL1        0.0000
     35 C         142.9632  139.9229  168.0288 C.3     1  UNL1        0.0000
     36 C         142.5883  143.1724  163.6756 C.3     1  UNL1        0.0724
     37 C         141.4214  143.6433  162.8592 C.3     1  UNL1        0.0173
     38 C         141.1630  145.1120  162.6977 C.3     1  UNL1        0.0014
     39 C         140.3020  145.6027  161.5716 C.3     1  UNL1        0.0000
     40 C         140.6794  145.2995  160.1519 C.3     1  UNL1        0.0000
@<TRIPOS>UNITY_ATOM_ATTR
27 1
charge -1
@<TRIPOS>BOND
     1    34    35    1
     2    35    33    1
     3    33    32    1
     4    32    31    1
     5    31    30    1
     6    30    36    1
     7    36    37    1
     8    37    38    1
     9    38    39    1
    10    39    40    1
    11    30    29    1
    12    29     1    1
    13     1     2   ar
    14     2     3   ar
    15     3    26    1
    16    26    27   ar
    17    26    28   ar
    18     3     4   ar
    19     4     5   ar
    20     5     6   ar
    21     6     7    1
    22     7     8   am
    23     8     9    2
    24     8    11    1
    25    11    12    1
    26    12    13    2
    27    13    14   ar
    28    14    15   ar
    29    15    16    1
    30    15    17   ar
    31    17    18   ar
    32    18    23    1
    33    23    24    1
    34    18    19   ar
    35    19    20    2
    36    20    21    1
    37    21    22    2
    38     6     1   ar
    39    21    11    1
    40    19    13   ar
    41     7    10    1
    42    23    25    1
