@<TRIPOS>MOLECULE
*****
 32 36 0 0 0
SMALL
GASTEIGER

@<TRIPOS>ATOM
      1 C         143.5368  140.6466  158.6190 C.2     1  UNL1        0.0596
      2 C         143.7619  139.5582  159.6264 C.2     1  UNL1        0.0324
      3 C         142.6815  139.2080  160.6062 C.2     1  UNL1        0.0889
      4 N         142.6152  138.1900  161.7058 N.2     1  UNL1       -0.2236
      5 C         141.2688  138.2991  162.3579 C.2     1  UNL1        0.1859
      6 N         140.5029  139.3845  161.6613 N.2     1  UNL1       -0.2387
      7 C         141.3760  139.9463  160.5787 C.3     1  UNL1        0.1679
      8 C         141.1510  141.0347  159.5713 C.2     1  UNL1        0.0164
      9 C         142.2314  141.3848  158.5915 C.2     1  UNL1        0.0690
     10 CL        142.0063  142.4733  157.5842 Cl      1  UNL1       -0.0812
     11 N         146.7781  141.6970  155.6794 N.3     1  UNL1       -0.2698
     12 C         145.8584  140.5451  155.4018 C.3     1  UNL1        0.0938
     13 C         144.7780  140.1949  156.3816 C.3     1  UNL1        0.1081
     14 N         144.6172  140.9968  157.6391 N.pl3   1  UNL1       -0.3040
     15 C         145.5369  142.1488  157.9167 C.3     1  UNL1        0.1081
     16 C         146.6173  142.4989  156.9369 C.3     1  UNL1        0.0938
     17 C         149.2902  141.7325  155.0177 C.3     1  UNL1        0.0188
     18 C         147.8585  142.0472  154.6996 C.3     1  UNL1        0.0722
     19 S         140.7749  137.4686  163.5052 S.3     1  UNL1       -0.0777
     20 C         139.8275  138.0603  164.5063 C.3     1  UNL1        0.0461
     21 C         138.8511  137.3736  163.5980 C.3     1  UNL1        0.0113
     22 C         141.1329  138.5415  165.0670 C.3     1  UNL1        0.0109
     23 C         141.1519  139.3760  166.3134 C.3     1  UNL1        0.0101
     24 C         139.8653  139.7292  166.9990 C.3     1  UNL1        0.0783
     25 C         138.5599  139.2480  166.4383 C.3     1  UNL1        0.0101
     26 C         138.5410  138.4135  165.1920 C.3     1  UNL1        0.0109
     27 C         139.8842  140.5637  168.2453 C.ar    1  UNL1        0.2256
     28 N         139.5987  140.0785  169.6357 N.ar    1  UNL1       -0.1117
     29 N         139.7300  141.2448  170.5697 N.ar    1  UNL1       -0.1117
     30 C         140.0967  142.4509  169.7566 C.ar    1  UNL1        0.2266
     31 C         140.3275  143.8349  170.2870 C.3     1  UNL1        0.0967
     32 O         140.1920  142.0299  168.3201 O.2     1  UNL1       -0.4233
@<TRIPOS>BOND
     1    17    18    1
     2    18    11    1
     3    11    12    1
     4    12    13    1
     5    13    14    1
     6    14     1    1
     7     1     2    2
     8     2     3    1
     9     3     4    2
    10     4     5    1
    11     5    19    1
    12    19    20    1
    13    20    21    1
    14    20    22    1
    15    22    23    1
    16    23    24    1
    17    24    27    1
    18    27    28   ar
    19    28    29   ar
    20    29    30   ar
    21    30    31    1
    22    30    32   ar
    23    24    25    1
    24    25    26    1
    25     5     6    2
    26     6     7    1
    27     7     8    1
    28     8     9    2
    29     9    10    1
    30    14    15    1
    31    15    16    1
    32    16    11    1
    33     9     1    1
    34     7     3    1
    35    26    20    1
    36    32    27   ar
@<TRIPOS>MOLECULE
*****
 32 36 0 0 0
SMALL
GASTEIGER

@<TRIPOS>ATOM
      1 C         139.2471  142.3066  157.8422 C.2     1  UNL1        0.0596
      2 C         139.0858  142.1662  159.3269 C.2     1  UNL1        0.0324
      3 C         139.1350  140.8079  159.9614 C.2     1  UNL1        0.0889
      4 N         139.0084  140.3613  161.3878 N.2     1  UNL1       -0.2236
      5 C         139.1406  138.8675  161.4192 C.2     1  UNL1        0.1859
      6 N         139.3489  138.3909  160.0123 N.2     1  UNL1       -0.2387
      7 C         139.3455  139.5901  159.1113 C.3     1  UNL1        0.1679
      8 C         139.5068  139.7306  157.6267 C.2     1  UNL1        0.0164
      9 C         139.4576  141.0889  156.9921 C.2     1  UNL1        0.0690
     10 CL        139.6189  141.2293  155.5074 Cl      1  UNL1       -0.0812
     11 N         139.0996  146.3815  155.9384 N.3     1  UNL1       -0.2698
     12 C         138.2286  145.2777  155.4160 C.3     1  UNL1        0.0938
     13 C         138.2778  143.9194  156.0506 C.3     1  UNL1        0.1081
     14 N         139.1980  143.6650  157.2076 N.pl3   1  UNL1       -0.3040
     15 C         140.0690  144.7688  157.7300 C.3     1  UNL1        0.1081
     16 C         140.0198  146.1271  157.0954 C.3     1  UNL1        0.0938
     17 C         139.9167  148.0454  154.1181 C.3     1  UNL1        0.0188
     18 C         139.0505  147.7398  155.3039 C.3     1  UNL1        0.0722
     19 S         139.0758  138.0022  162.6427 S.3     1  UNL1       -0.0777
     20 C         139.9055  138.3408  163.8456 C.3     1  UNL1        0.0461
     21 C         140.9570  137.7296  162.9677 C.3     1  UNL1        0.0113
     22 C         138.5659  138.8344  164.3058 C.3     1  UNL1        0.0109
     23 C         138.4210  139.4544  165.6640 C.3     1  UNL1        0.0101
     24 C         139.6159  139.5808  166.5620 C.3     1  UNL1        0.0783
     25 C         140.9555  139.0872  166.1018 C.3     1  UNL1        0.0101
     26 C         141.1003  138.4672  164.7436 C.3     1  UNL1        0.0109
     27 C         139.4711  140.2008  167.9202 C.ar    1  UNL1        0.2256
     28 N         138.7312  139.6112  169.0842 N.ar    1  UNL1       -0.1117
     29 N         138.8436  140.5653  170.2362 N.ar    1  UNL1       -0.1117
     30 C         139.6530  141.7445  169.7842 C.ar    1  UNL1        0.2266
     31 C         140.0116  142.9393  170.6172 C.3     1  UNL1        0.0967
     32 O         140.0408  141.5193  168.3528 O.2     1  UNL1       -0.4233
@<TRIPOS>BOND
     1    17    18    1
     2    18    11    1
     3    11    12    1
     4    12    13    1
     5    13    14    1
     6    14     1    1
     7     1     2    2
     8     2     3    1
     9     3     4    2
    10     4     5    1
    11     5    19    1
    12    19    20    1
    13    20    21    1
    14    20    22    1
    15    22    23    1
    16    23    24    1
    17    24    27    1
    18    27    28   ar
    19    28    29   ar
    20    29    30   ar
    21    30    31    1
    22    30    32   ar
    23    24    25    1
    24    25    26    1
    25     5     6    2
    26     6     7    1
    27     7     8    1
    28     8     9    2
    29     9    10    1
    30    14    15    1
    31    15    16    1
    32    16    11    1
    33     9     1    1
    34     7     3    1
    35    26    20    1
    36    32    27   ar
@<TRIPOS>MOLECULE
*****
 32 36 0 0 0
SMALL
GASTEIGER

@<TRIPOS>ATOM
      1 C         141.5092  141.9533  158.3914 C.2     1  UNL1        0.0596
      2 C         140.7792  141.6900  159.6752 C.2     1  UNL1        0.0324
      3 C         141.0440  140.4293  160.4435 C.2     1  UNL1        0.0889
      4 N         140.4812  139.9007  161.7296 N.2     1  UNL1       -0.2236
      5 C         141.1281  138.5766  162.0091 C.2     1  UNL1        0.1859
      6 N         142.0907  138.2868  160.8958 N.2     1  UNL1       -0.2387
      7 C         142.0388  139.4318  159.9283 C.3     1  UNL1        0.1679
      8 C         142.7687  139.6951  158.6446 C.2     1  UNL1        0.0164
      9 C         142.5039  140.9558  157.8762 C.2     1  UNL1        0.0690
     10 CL        143.2340  141.2191  156.5925 Cl      1  UNL1       -0.0812
     11 N         140.7149  145.7355  156.0863 N.3     1  UNL1       -0.2698
     12 C         141.8637  145.6709  157.0485 C.3     1  UNL1        0.0938
     13 C         142.1285  144.4102  157.8168 C.3     1  UNL1        0.1081
     14 N         141.2444  143.2141  157.6230 N.pl3   1  UNL1       -0.3040
     15 C         140.0955  143.2786  156.6608 C.3     1  UNL1        0.1081
     16 C         139.8307  144.5394  155.8924 C.3     1  UNL1        0.0938
     17 C         139.0413  147.3901  154.9855 C.3     1  UNL1        0.0188
     18 C         140.4500  146.9962  155.3178 C.3     1  UNL1        0.0722
     19 S         140.8595  137.6967  163.1938 S.3     1  UNL1       -0.0777
     20 C         139.8689  138.1238  164.2361 C.3     1  UNL1        0.0461
     21 C         138.9668  137.3504  163.3208 C.3     1  UNL1        0.0113
     22 C         141.1152  138.7490  164.7894 C.3     1  UNL1        0.0109
     23 C         141.0575  139.5326  166.0672 C.3     1  UNL1        0.0101
     24 C         139.7536  139.6911  166.7915 C.3     1  UNL1        0.0783
     25 C         138.5074  139.0660  166.2382 C.3     1  UNL1        0.0101
     26 C         138.5651  138.2824  164.9604 C.3     1  UNL1        0.0109
     27 C         139.6959  140.4748  168.0693 C.ar    1  UNL1        0.2256
     28 N         139.0952  140.0096  169.3626 N.ar    1  UNL1       -0.1117
     29 N         139.2569  141.1085  170.3706 N.ar    1  UNL1       -0.1117
     30 C         139.9576  142.2530  169.7003 C.ar    1  UNL1        0.2266
     31 C         140.3228  143.5597  170.3399 C.3     1  UNL1        0.0967
     32 O         140.2289  141.8614  168.2779 O.2     1  UNL1       -0.4233
@<TRIPOS>BOND
     1    17    18    1
     2    18    11    1
     3    11    12    1
     4    12    13    1
     5    13    14    1
     6    14     1    1
     7     1     2    2
     8     2     3    1
     9     3     4    2
    10     4     5    1
    11     5    19    1
    12    19    20    1
    13    20    21    1
    14    20    22    1
    15    22    23    1
    16    23    24    1
    17    24    27    1
    18    27    28   ar
    19    28    29   ar
    20    29    30   ar
    21    30    31    1
    22    30    32   ar
    23    24    25    1
    24    25    26    1
    25     5     6    2
    26     6     7    1
    27     7     8    1
    28     8     9    2
    29     9    10    1
    30    14    15    1
    31    15    16    1
    32    16    11    1
    33     9     1    1
    34     7     3    1
    35    26    20    1
    36    32    27   ar
@<TRIPOS>MOLECULE
*****
 32 36 0 0 0
SMALL
GASTEIGER

@<TRIPOS>ATOM
      1 C         140.2800  143.2112  164.0231 C.2     1  UNL1        0.0596
      2 C         140.8917  142.7542  162.7319 C.2     1  UNL1        0.0324
      3 C         140.6859  143.5545  161.4800 C.2     1  UNL1        0.0889
      4 N         141.1613  143.3546  160.0715 N.2     1  UNL1       -0.2236
      5 C         140.6378  144.4882  159.2403 C.2     1  UNL1        0.1859
      6 N         139.8388  145.3887  160.1351 N.2     1  UNL1       -0.2387
      7 C         139.8685  144.8117  161.5194 C.3     1  UNL1        0.1679
      8 C         139.2569  145.2685  162.8106 C.2     1  UNL1        0.0164
      9 C         139.4627  144.4682  164.0624 C.2     1  UNL1        0.0690
     10 CL        138.8511  144.9251  165.3537 Cl      1  UNL1       -0.0812
     11 N         140.8974  140.8103  167.7788 N.3     1  UNL1       -0.2698
     12 C         141.9213  141.8230  167.3592 C.3     1  UNL1        0.0938
     13 C         141.7155  142.6233  166.1074 C.3     1  UNL1        0.1081
     14 N         140.4858  142.4108  165.2751 N.pl3   1  UNL1       -0.3040
     15 C         139.4619  141.3981  165.6946 C.3     1  UNL1        0.1081
     16 C         139.6677  140.5979  166.9465 C.3     1  UNL1        0.0938
     17 C         142.4303  139.3643  169.2984 C.3     1  UNL1        0.0188
     18 C         141.1031  140.0100  169.0306 C.3     1  UNL1        0.0722
     19 S         140.8721  144.6865  157.7720 S.3     1  UNL1       -0.0777
     20 C         139.7118  144.6913  156.8213 C.3     1  UNL1        0.0461
     21 C         140.3207  146.0230  156.4960 C.3     1  UNL1        0.0113
     22 C         139.5059  143.3579  157.4769 C.3     1  UNL1        0.0109
     23 C         138.3512  142.4918  157.0687 C.3     1  UNL1        0.0101
     24 C         137.4024  142.9592  156.0050 C.3     1  UNL1        0.0783
     25 C         137.6084  144.2925  155.3495 C.3     1  UNL1        0.0101
     26 C         138.7631  145.1586  155.7576 C.3     1  UNL1        0.0109
     27 C         136.2477  142.0931  155.5968 C.ar    1  UNL1        0.2256
     28 N         135.5273  142.1460  154.2822 N.ar    1  UNL1       -0.1117
     29 N         134.4451  141.1077  154.3046 N.ar    1  UNL1       -0.1117
     30 C         134.4965  140.4130  155.6331 C.ar    1  UNL1        0.2266
     31 C         133.5926  139.3040  156.0838 C.3     1  UNL1        0.0967
     32 O         135.6106  141.0221  156.4318 O.2     1  UNL1       -0.4233
@<TRIPOS>BOND
     1    17    18    1
     2    18    11    1
     3    11    12    1
     4    12    13    1
     5    13    14    1
     6    14     1    1
     7     1     2    2
     8     2     3    1
     9     3     4    2
    10     4     5    1
    11     5    19    1
    12    19    20    1
    13    20    21    1
    14    20    22    1
    15    22    23    1
    16    23    24    1
    17    24    27    1
    18    27    28   ar
    19    28    29   ar
    20    29    30   ar
    21    30    31    1
    22    30    32   ar
    23    24    25    1
    24    25    26    1
    25     5     6    2
    26     6     7    1
    27     7     8    1
    28     8     9    2
    29     9    10    1
    30    14    15    1
    31    15    16    1
    32    16    11    1
    33     9     1    1
    34     7     3    1
    35    26    20    1
    36    32    27   ar
@<TRIPOS>MOLECULE
*****
 32 36 0 0 0
SMALL
GASTEIGER

@<TRIPOS>ATOM
      1 C         140.9938  138.7770  158.1657 C.2     1  UNL1        0.0596
      2 C         139.9245  138.6269  159.2070 C.2     1  UNL1        0.0324
      3 C         139.5264  139.8035  160.0479 C.2     1  UNL1        0.0889
      4 N         138.5132  139.9572  161.1433 N.2     1  UNL1       -0.2236
      5 C         138.5581  141.3787  161.6200 C.2     1  UNL1        0.1859
      6 N         139.5990  142.1035  160.8193 N.2     1  UNL1       -0.2387
      7 C         140.1974  141.1300  159.8476 C.3     1  UNL1        0.1679
      8 C         141.2667  141.2799  158.8064 C.2     1  UNL1        0.0164
      9 C         141.6649  140.1034  157.9655 C.2     1  UNL1        0.0690
     10 CL        142.7342  140.2534  156.9242 Cl      1  UNL1       -0.0812
     11 N         142.1884  135.2473  155.6428 N.3     1  UNL1       -0.2698
     12 C         143.0711  135.6972  156.7691 C.3     1  UNL1        0.0938
     13 C         142.6729  136.8737  157.6100 C.3     1  UNL1        0.1081
     14 N         141.3920  137.6004  157.3247 N.pl3   1  UNL1       -0.3040
     15 C         140.5094  137.1505  156.1985 C.3     1  UNL1        0.1081
     16 C         140.9076  135.9739  155.3575 C.3     1  UNL1        0.0938
     17 C         143.4682  133.0020  155.3767 C.3     1  UNL1        0.0188
     18 C         142.5865  134.0708  154.8019 C.3     1  UNL1        0.0722
     19 S         137.7109  141.9715  162.7067 S.3     1  UNL1       -0.0777
     20 C         138.3479  142.7812  163.7969 C.3     1  UNL1        0.0461
     21 C         137.7610  143.8820  162.9639 C.3     1  UNL1        0.0113
     22 C         138.7136  141.3992  164.2513 C.3     1  UNL1        0.0109
     23 C         139.5125  141.2093  165.5066 C.3     1  UNL1        0.0101
     24 C         139.9456  142.4014  166.3075 C.3     1  UNL1        0.0783
     25 C         139.5799  143.7833  165.8531 C.3     1  UNL1        0.0101
     26 C         138.7810  143.9732  164.5978 C.3     1  UNL1        0.0109
     27 C         140.7445  142.2114  167.5628 C.ar    1  UNL1        0.2256
     28 N         140.2343  141.6476  168.8558 N.ar    1  UNL1       -0.1117
     29 N         141.3683  141.6397  169.8376 N.ar    1  UNL1       -0.1117
     30 C         142.5794  142.1986  169.1514 C.ar    1  UNL1        0.2266
     31 C         143.9375  142.3735  169.7636 C.3     1  UNL1        0.0967
     32 O         142.1939  142.5520  167.7455 O.2     1  UNL1       -0.4233
@<TRIPOS>BOND
     1    17    18    1
     2    18    11    1
     3    11    12    1
     4    12    13    1
     5    13    14    1
     6    14     1    1
     7     1     2    2
     8     2     3    1
     9     3     4    2
    10     4     5    1
    11     5    19    1
    12    19    20    1
    13    20    21    1
    14    20    22    1
    15    22    23    1
    16    23    24    1
    17    24    27    1
    18    27    28   ar
    19    28    29   ar
    20    29    30   ar
    21    30    31    1
    22    30    32   ar
    23    24    25    1
    24    25    26    1
    25     5     6    2
    26     6     7    1
    27     7     8    1
    28     8     9    2
    29     9    10    1
    30    14    15    1
    31    15    16    1
    32    16    11    1
    33     9     1    1
    34     7     3    1
    35    26    20    1
    36    32    27   ar
@<TRIPOS>MOLECULE
*****
 32 36 0 0 0
SMALL
GASTEIGER

@<TRIPOS>ATOM
      1 C         142.5211  140.2251  163.5685 C.2     1  UNL1        0.0596
      2 C         141.7239  140.4767  162.3229 C.2     1  UNL1        0.0324
      3 C         142.2672  140.0608  160.9880 C.2     1  UNL1        0.0889
      4 N         141.7136  140.1768  159.5988 N.2     1  UNL1       -0.2236
      5 C         142.7118  139.5810  158.6508 C.2     1  UNL1        0.1859
      6 N         143.8823  139.0968  159.4542 N.2     1  UNL1       -0.2387
      7 C         143.6075  139.3933  160.8987 C.3     1  UNL1        0.1679
      8 C         144.4046  139.1417  162.1443 C.2     1  UNL1        0.0164
      9 C         143.8613  139.5576  163.4791 C.2     1  UNL1        0.0690
     10 CL        144.6585  139.3060  164.7247 Cl      1  UNL1       -0.0812
     11 N         140.8913  141.4728  167.5731 N.3     1  UNL1       -0.2698
     12 C         141.6456  142.4581  166.7304 C.3     1  UNL1        0.0938
     13 C         142.1889  142.0422  165.3955 C.3     1  UNL1        0.1081
     14 N         141.9778  140.6410  164.9034 N.pl3   1  UNL1       -0.3040
     15 C         141.2234  139.6557  165.7462 C.3     1  UNL1        0.1081
     16 C         140.6802  140.0717  167.0810 C.3     1  UNL1        0.0938
     17 C         140.4787  143.3129  169.3603 C.3     1  UNL1        0.0188
     18 C         140.3480  141.8887  168.9080 C.3     1  UNL1        0.0722
     19 S         142.5653  139.4861  157.1610 S.3     1  UNL1       -0.0777
     20 C         143.2843  138.4093  156.4038 C.3     1  UNL1        0.0461
     21 C         144.0317  139.6147  155.9154 C.3     1  UNL1        0.0113
     22 C         142.2872  137.5779  157.1551 C.3     1  UNL1        0.0109
     23 C         142.2686  136.0883  156.9797 C.3     1  UNL1        0.0101
     24 C         143.2473  135.4302  156.0527 C.3     1  UNL1        0.0783
     25 C         144.2443  136.2616  155.3014 C.3     1  UNL1        0.0101
     26 C         144.2629  137.7512  155.4769 C.3     1  UNL1        0.0109
     27 C         143.2287  133.9406  155.8773 C.ar    1  UNL1        0.2256
     28 N         142.0128  133.0964  155.6343 N.ar    1  UNL1       -0.1117
     29 N         142.4555  131.6678  155.5208 N.ar    1  UNL1       -0.1117
     30 C         143.9450  131.6289  155.6936 C.ar    1  UNL1        0.2266
     31 C         144.8056  130.4010  155.6533 C.3     1  UNL1        0.0967
     32 O         144.4229  133.0336  155.9139 O.2     1  UNL1       -0.4233
@<TRIPOS>BOND
     1    17    18    1
     2    18    11    1
     3    11    12    1
     4    12    13    1
     5    13    14    1
     6    14     1    1
     7     1     2    2
     8     2     3    1
     9     3     4    2
    10     4     5    1
    11     5    19    1
    12    19    20    1
    13    20    21    1
    14    20    22    1
    15    22    23    1
    16    23    24    1
    17    24    27    1
    18    27    28   ar
    19    28    29   ar
    20    29    30   ar
    21    30    31    1
    22    30    32   ar
    23    24    25    1
    24    25    26    1
    25     5     6    2
    26     6     7    1
    27     7     8    1
    28     8     9    2
    29     9    10    1
    30    14    15    1
    31    15    16    1
    32    16    11    1
    33     9     1    1
    34     7     3    1
    35    26    20    1
    36    32    27   ar
@<TRIPOS>MOLECULE
*****
 32 36 0 0 0
SMALL
GASTEIGER

@<TRIPOS>ATOM
      1 C         140.4798  139.4101  164.0735 C.2     1  UNL1        0.0596
      2 C         141.1005  140.0917  162.8902 C.2     1  UNL1        0.0324
      3 C         140.7249  139.6712  161.5003 C.2     1  UNL1        0.0889
      4 N         141.1673  140.1552  160.1512 N.2     1  UNL1       -0.2236
      5 C         140.4444  139.3522  159.1107 C.2     1  UNL1        0.1859
      6 N         139.5552  138.3720  159.8167 N.2     1  UNL1       -0.2387
      7 C         139.7285  138.5691  161.2936 C.3     1  UNL1        0.1679
      8 C         139.1078  137.8875  162.4769 C.2     1  UNL1        0.0164
      9 C         139.4835  138.3080  163.8668 C.2     1  UNL1        0.0690
     10 CL        138.8627  137.6264  165.0501 Cl      1  UNL1       -0.0812
     11 N         141.6067  140.6716  168.2436 N.3     1  UNL1       -0.2698
     12 C         140.3991  141.2653  167.5810 C.3     1  UNL1        0.0938
     13 C         140.0235  140.8448  166.1910 C.3     1  UNL1        0.1081
     14 N         140.8554  139.8306  165.4636 N.pl3   1  UNL1       -0.3040
     15 C         142.0631  139.2368  166.1262 C.3     1  UNL1        0.1081
     16 C         142.4387  139.6573  167.5162 C.3     1  UNL1        0.0938
     17 C         143.3930  141.5017  169.9377 C.3     1  UNL1        0.0188
     18 C         141.9824  141.0920  169.6335 C.3     1  UNL1        0.0722
     19 S         140.5859  139.5029  157.6250 S.3     1  UNL1       -0.0777
     20 C         140.4510  138.3043  156.7334 C.3     1  UNL1        0.0461
     21 C         139.2281  139.0711  156.3256 C.3     1  UNL1        0.0113
     22 C         141.7209  137.9537  157.4508 C.3     1  UNL1        0.0109
     23 C         142.4312  136.6708  157.1349 C.3     1  UNL1        0.0101
     24 C         141.8715  135.7385  156.1016 C.3     1  UNL1        0.0783
     25 C         140.6017  136.0891  155.3842 C.3     1  UNL1        0.0101
     26 C         139.8915  137.3720  155.7001 C.3     1  UNL1        0.0109
     27 C         142.5818  134.4556  155.7857 C.ar    1  UNL1        0.2256
     28 N         142.3278  133.5767  154.5971 N.ar    1  UNL1       -0.1117
     29 N         143.2598  132.4043  154.6798 N.ar    1  UNL1       -0.1117
     30 C         144.0898  132.5586  155.9197 C.ar    1  UNL1        0.2266
     31 C         145.1524  131.6115  156.3930 C.3     1  UNL1        0.0967
     32 O         143.6708  133.8264  156.6032 O.2     1  UNL1       -0.4233
@<TRIPOS>BOND
     1    17    18    1
     2    18    11    1
     3    11    12    1
     4    12    13    1
     5    13    14    1
     6    14     1    1
     7     1     2    2
     8     2     3    1
     9     3     4    2
    10     4     5    1
    11     5    19    1
    12    19    20    1
    13    20    21    1
    14    20    22    1
    15    22    23    1
    16    23    24    1
    17    24    27    1
    18    27    28   ar
    19    28    29   ar
    20    29    30   ar
    21    30    31    1
    22    30    32   ar
    23    24    25    1
    24    25    26    1
    25     5     6    2
    26     6     7    1
    27     7     8    1
    28     8     9    2
    29     9    10    1
    30    14    15    1
    31    15    16    1
    32    16    11    1
    33     9     1    1
    34     7     3    1
    35    26    20    1
    36    32    27   ar
@<TRIPOS>MOLECULE
*****
 32 36 0 0 0
SMALL
GASTEIGER

@<TRIPOS>ATOM
      1 C         141.8522  142.6590  157.6275 C.2     1  UNL1        0.0596
      2 C         141.5383  142.1576  159.0060 C.2     1  UNL1        0.0324
      3 C         142.2761  140.9749  159.5600 C.2     1  UNL1        0.0889
      4 N         142.1839  140.2608  160.8758 N.2     1  UNL1       -0.2236
      5 C         143.1786  139.1381  160.8646 C.2     1  UNL1        0.1859
      6 N         143.8856  139.1584  159.5418 N.2     1  UNL1       -0.2387
      7 C         143.3279  140.2937  158.7355 C.3     1  UNL1        0.1679
      8 C         143.6417  140.7951  157.3571 C.2     1  UNL1        0.0164
      9 C         142.9039  141.9777  156.8031 C.2     1  UNL1        0.0690
     10 CL        143.2178  142.4791  155.4246 Cl      1  UNL1       -0.0812
     11 N         139.6387  146.2071  155.9657 N.3     1  UNL1       -0.2698
     12 C         140.9383  146.4050  156.6881 C.3     1  UNL1        0.0938
     13 C         141.6761  145.2223  157.2420 C.3     1  UNL1        0.1081
     14 N         141.1144  143.8417  157.0736 N.pl3   1  UNL1       -0.3040
     15 C         139.8148  143.6438  156.3512 C.3     1  UNL1        0.1081
     16 C         139.0769  144.8265  155.7972 C.3     1  UNL1        0.0938
     17 C         138.6321  148.5812  156.2825 C.3     1  UNL1        0.0188
     18 C         138.9009  147.3897  155.4117 C.3     1  UNL1        0.0722
     19 S         143.4234  138.1658  161.9802 S.3     1  UNL1       -0.0777
     20 C         142.6078  138.2450  163.2366 C.3     1  UNL1        0.0461
     21 C         141.6614  137.4801  162.3595 C.3     1  UNL1        0.0113
     22 C         143.8375  138.9824  163.6774 C.3     1  UNL1        0.0109
     23 C         143.9229  139.5333  165.0699 C.3     1  UNL1        0.0101
     24 C         142.7785  139.3469  166.0217 C.3     1  UNL1        0.0783
     25 C         141.5489  138.6096  165.5809 C.3     1  UNL1        0.0101
     26 C         141.4635  138.0586  164.1883 C.3     1  UNL1        0.0109
     27 C         142.8639  139.8978  167.4143 C.ar    1  UNL1        0.2256
     28 N         142.9749  139.0935  168.6755 N.ar    1  UNL1       -0.1117
     29 N         143.0329  140.0484  169.8307 N.ar    1  UNL1       -0.1117
     30 C         142.9577  141.4430  169.2835 C.ar    1  UNL1        0.2266
     31 C         142.9826  142.7085  170.0884 C.3     1  UNL1        0.0967
     32 O         142.8533  141.3500  167.7901 O.2     1  UNL1       -0.4233
@<TRIPOS>BOND
     1    17    18    1
     2    18    11    1
     3    11    12    1
     4    12    13    1
     5    13    14    1
     6    14     1    1
     7     1     2    2
     8     2     3    1
     9     3     4    2
    10     4     5    1
    11     5    19    1
    12    19    20    1
    13    20    21    1
    14    20    22    1
    15    22    23    1
    16    23    24    1
    17    24    27    1
    18    27    28   ar
    19    28    29   ar
    20    29    30   ar
    21    30    31    1
    22    30    32   ar
    23    24    25    1
    24    25    26    1
    25     5     6    2
    26     6     7    1
    27     7     8    1
    28     8     9    2
    29     9    10    1
    30    14    15    1
    31    15    16    1
    32    16    11    1
    33     9     1    1
    34     7     3    1
    35    26    20    1
    36    32    27   ar
@<TRIPOS>MOLECULE
*****
 32 36 0 0 0
SMALL
GASTEIGER

@<TRIPOS>ATOM
      1 C         143.0970  138.2927  157.1429 C.2     1  UNL1        0.0596
      2 C         142.9569  138.6538  158.5921 C.2     1  UNL1        0.0324
      3 C         143.4488  139.9824  159.0848 C.2     1  UNL1        0.0889
      4 N         143.4467  140.6112  160.4466 N.2     1  UNL1       -0.2236
      5 C         144.0775  141.9673  160.3319 C.2     1  UNL1        0.1859
      6 N         144.4694  142.1766  158.8992 N.2     1  UNL1       -0.2387
      7 C         144.0809  140.9498  158.1284 C.3     1  UNL1        0.1679
      8 C         144.2210  140.5886  156.6793 C.2     1  UNL1        0.0164
      9 C         143.7290  139.2600  156.1866 C.2     1  UNL1        0.0690
     10 CL        143.8691  138.8989  154.7374 Cl      1  UNL1       -0.0812
     11 N         141.6211  134.3069  155.6645 N.3     1  UNL1       -0.2698
     12 C         140.8953  135.5633  155.2844 C.3     1  UNL1        0.0938
     13 C         141.3873  136.8919  155.7771 C.3     1  UNL1        0.1081
     14 N         142.6050  136.9640  156.6501 N.pl3   1  UNL1       -0.3040
     15 C         143.3307  135.7075  157.0302 C.3     1  UNL1        0.1081
     16 C         142.8388  134.3789  156.5374 C.3     1  UNL1        0.0938
     17 C         141.9998  131.7631  155.2959 C.3     1  UNL1        0.0188
     18 C         141.1292  132.9783  155.1718 C.3     1  UNL1        0.0722
     19 S         144.2806  142.9429  161.4530 S.3     1  UNL1       -0.0777
     20 C         143.3180  142.9751  162.6029 C.3     1  UNL1        0.0461
     21 C         142.4863  143.6428  161.5482 C.3     1  UNL1        0.0113
     22 C         144.4840  142.2962  163.2583 C.3     1  UNL1        0.0109
     23 C         144.3986  141.8813  164.6973 C.3     1  UNL1        0.0101
     24 C         143.1470  142.1454  165.4809 C.3     1  UNL1        0.0783
     25 C         141.9811  142.8243  164.8255 C.3     1  UNL1        0.0101
     26 C         142.0665  143.2392  163.3865 C.3     1  UNL1        0.0109
     27 C         143.0616  141.7306  166.9198 C.ar    1  UNL1        0.2256
     28 N         143.3806  142.5914  168.1061 N.ar    1  UNL1       -0.1117
     29 N         143.1583  141.7749  169.3445 N.ar    1  UNL1       -0.1117
     30 C         142.7018  140.4094  168.9238 C.ar    1  UNL1        0.2266
     31 C         142.3644  139.2712  169.8406 C.3     1  UNL1        0.0967
     32 O         142.6420  140.3820  167.4252 O.2     1  UNL1       -0.4233
@<TRIPOS>BOND
     1    17    18    1
     2    18    11    1
     3    11    12    1
     4    12    13    1
     5    13    14    1
     6    14     1    1
     7     1     2    2
     8     2     3    1
     9     3     4    2
    10     4     5    1
    11     5    19    1
    12    19    20    1
    13    20    21    1
    14    20    22    1
    15    22    23    1
    16    23    24    1
    17    24    27    1
    18    27    28   ar
    19    28    29   ar
    20    29    30   ar
    21    30    31    1
    22    30    32   ar
    23    24    25    1
    24    25    26    1
    25     5     6    2
    26     6     7    1
    27     7     8    1
    28     8     9    2
    29     9    10    1
    30    14    15    1
    31    15    16    1
    32    16    11    1
    33     9     1    1
    34     7     3    1
    35    26    20    1
    36    32    27   ar
