@<TRIPOS>MOLECULE
*****
 37 41 0 0 0
SMALL
GASTEIGER

@<TRIPOS>ATOM
      1 C         139.1664  140.6597  164.6238 C.3     1  UNL1        0.0760
      2 C         138.6757  139.7235  166.9972 C.ar    1  UNL1        0.1351
      3 C         138.9630  139.6995  168.4692 C.ar    1  UNL1        0.0366
      4 C         140.0285  140.5879  169.0399 C.ar    1  UNL1        0.0030
      5 C         140.3158  140.5640  170.5119 C.ar    1  UNL1        0.0006
      6 C         141.3812  141.4524  171.0826 C.ar    1  UNL1        0.0067
      7 C         142.1592  142.3646  170.1813 C.ar    1  UNL1        0.0346
      8 BR        143.2247  143.2530  170.7520 Br      1  UNL1       -0.0490
      9 C         141.8719  142.3886  168.7093 C.ar    1  UNL1        0.0067
     10 C         140.8065  141.5002  168.1386 C.ar    1  UNL1        0.0004
     11 C         140.5191  141.5241  166.6665 C.ar    1  UNL1       -0.0009
     12 C         139.4537  140.6358  166.0959 C.ar    1  UNL1        0.0181
     13 C         137.7097  137.3469  166.5861 C.3     1  UNL1        0.2525
     14 O         137.6103  138.8351  166.4264 O.3     1  UNL1       -0.4717
     15 C         138.7793  141.9458  163.9560 C.ar    1  UNL1       -0.0157
     16 C         139.2323  142.2291  162.5544 C.ar    1  UNL1       -0.0039
     17 C         138.8452  143.5153  161.8866 C.ar    1  UNL1       -0.0003
     18 C         138.0052  144.5182  162.6204 C.ar    1  UNL1       -0.0000
     19 C         137.5522  144.2349  164.0221 C.ar    1  UNL1       -0.0003
     20 C         137.9392  142.9488  164.6899 C.ar    1  UNL1       -0.0039
     21 C         139.2660  139.3974  163.8196 C.3     1  UNL1        0.1158
     22 O         137.7931  139.4577  163.5425 O.3     1  UNL1       -0.3820
     23 H         137.3135  139.6030  164.3731 H       1  UNL1        0.2107
     24 C         140.7389  139.3372  164.0967 C.ar    1  UNL1        0.0026
     25 C         141.2892  138.2744  165.0011 C.ar    1  UNL1        0.0011
     26 C         142.7621  138.2142  165.2782 C.ar    1  UNL1        0.0372
     27 C         143.6849  139.2167  164.6509 C.ar    1  UNL1        0.1454
     28 O         145.1703  139.4057  164.7380 O.2     1  UNL1       -0.4504
     29 C         145.5383  140.5852  163.8875 C.ar    1  UNL1        0.1796
     30 C         144.2801  141.1252  163.2747 C.ar    1  UNL1        0.0437
     31 C         143.1347  140.2794  163.7465 C.ar    1  UNL1        0.0375
     32 C         141.6617  140.3397  163.4694 C.ar    1  UNL1        0.0011
     33 C         139.3657  138.1352  163.0154 C.3     1  UNL1        0.0491
     34 C         138.5999  138.0007  161.7327 C.3     1  UNL1        0.0750
     35 N         138.8987  138.9147  160.5814 N.3     1  UNL1       -0.2702
     36 C         137.8454  139.8569  160.0788 C.3     1  UNL1        0.0897
     37 C         140.2509  138.8864  159.9328 C.3     1  UNL1        0.0897
@<TRIPOS>BOND
     1    13    14    1
     2    14     2    1
     3     2     3   ar
     4     3     4   ar
     5     4     5   ar
     6     5     6   ar
     7     6     7   ar
     8     7     8    1
     9     7     9   ar
    10     9    10   ar
    11    10    11   ar
    12    11    12   ar
    13     1    12    1
    14     1    15    1
    15    15    16   ar
    16    16    17   ar
    17    17    18   ar
    18    18    19   ar
    19    19    20   ar
    20     1    21    1
    21    21    22    1
    22    21    33    1
    23    33    34    1
    24    34    35    1
    25    35    36    1
    26    35    37    1
    27    21    24    1
    28    24    25   ar
    29    25    26   ar
    30    26    27   ar
    31    27    28   ar
    32    28    29   ar
    33    29    30   ar
    34    30    31   ar
    35    31    32   ar
    36    12     2   ar
    37    20    15   ar
    38    32    24   ar
    39    10     4   ar
    40    31    27   ar
    41    22    23    1
@<TRIPOS>MOLECULE
*****
 37 41 0 0 0
SMALL
GASTEIGER

@<TRIPOS>ATOM
      1 C         140.7012  140.4109  165.5684 C.3     1  UNL1        0.0760
      2 C         142.9787  139.8562  164.4479 C.ar    1  UNL1        0.1351
      3 C         143.8164  139.7064  163.2128 C.ar    1  UNL1        0.0366
      4 C         143.2144  139.9614  161.8627 C.ar    1  UNL1        0.0030
      5 C         144.0521  139.8115  160.6275 C.ar    1  UNL1        0.0006
      6 C         143.4501  140.0666  159.2775 C.ar    1  UNL1        0.0067
      7 C         142.0103  140.4714  159.1627 C.ar    1  UNL1        0.0346
      8 BR        141.4083  140.7265  157.8127 Br      1  UNL1       -0.0490
      9 C         141.1726  140.6213  160.3979 C.ar    1  UNL1        0.0067
     10 C         141.7746  140.3663  161.7479 C.ar    1  UNL1        0.0004
     11 C         140.9369  140.5161  162.9832 C.ar    1  UNL1       -0.0009
     12 C         141.5389  140.2611  164.3331 C.ar    1  UNL1        0.0181
     13 C         143.6915  138.1982  166.3169 C.3     1  UNL1        0.2525
     14 O         143.5807  139.6012  165.7980 O.3     1  UNL1       -0.4717
     15 C         139.6687  139.3760  165.9045 C.ar    1  UNL1       -0.0157
     16 C         139.5901  138.1083  165.1066 C.ar    1  UNL1       -0.0039
     17 C         138.5577  137.0733  165.4427 C.ar    1  UNL1       -0.0003
     18 C         137.6039  137.3061  166.5767 C.ar    1  UNL1       -0.0000
     19 C         137.6824  138.5739  167.3747 C.ar    1  UNL1       -0.0003
     20 C         138.7149  139.6088  167.0386 C.ar    1  UNL1       -0.0039
     21 C         140.8959  141.5957  166.4675 C.3     1  UNL1        0.1158
     22 O         141.5415  140.7114  167.4928 O.3     1  UNL1       -0.3820
     23 H         140.9859  139.9305  167.6421 H       1  UNL1        0.2107
     24 C         140.2503  142.4799  165.4422 C.ar    1  UNL1        0.0026
     25 C         138.7841  142.3476  165.1541 C.ar    1  UNL1        0.0011
     26 C         138.1385  143.2318  164.1288 C.ar    1  UNL1        0.0372
     27 C         138.9590  144.2483  163.3915 C.ar    1  UNL1        0.1454
     28 O         138.6019  145.2512  162.3347 O.2     1  UNL1       -0.4504
     29 C         139.8474  146.0032  161.9697 C.ar    1  UNL1        0.1796
     30 C         140.9742  145.4652  162.8009 C.ar    1  UNL1        0.0437
     31 C         140.4251  144.3807  163.6796 C.ar    1  UNL1        0.0375
     32 C         141.0708  143.4964  164.7050 C.ar    1  UNL1        0.0011
     33 C         141.0906  142.7804  167.3666 C.3     1  UNL1        0.0491
     34 C         140.4796  142.7908  168.7365 C.3     1  UNL1        0.0750
     35 N         141.2940  142.3712  169.9242 N.3     1  UNL1       -0.2702
     36 C         140.7252  141.4042  170.9198 C.3     1  UNL1        0.0897
     37 C         142.6773  142.9187  170.1163 C.3     1  UNL1        0.0897
@<TRIPOS>BOND
     1    13    14    1
     2    14     2    1
     3     2     3   ar
     4     3     4   ar
     5     4     5   ar
     6     5     6   ar
     7     6     7   ar
     8     7     8    1
     9     7     9   ar
    10     9    10   ar
    11    10    11   ar
    12    11    12   ar
    13     1    12    1
    14     1    15    1
    15    15    16   ar
    16    16    17   ar
    17    17    18   ar
    18    18    19   ar
    19    19    20   ar
    20     1    21    1
    21    21    22    1
    22    21    33    1
    23    33    34    1
    24    34    35    1
    25    35    36    1
    26    35    37    1
    27    21    24    1
    28    24    25   ar
    29    25    26   ar
    30    26    27   ar
    31    27    28   ar
    32    28    29   ar
    33    29    30   ar
    34    30    31   ar
    35    31    32   ar
    36    12     2   ar
    37    20    15   ar
    38    32    24   ar
    39    10     4   ar
    40    31    27   ar
    41    22    23    1
@<TRIPOS>MOLECULE
*****
 37 41 0 0 0
SMALL
GASTEIGER

@<TRIPOS>ATOM
      1 C         140.7885  140.2870  164.7204 C.3     1  UNL1        0.0760
      2 C         142.5251  139.6042  162.9125 C.ar    1  UNL1        0.1351
      3 C         142.8831  139.3844  161.4726 C.ar    1  UNL1        0.0366
      4 C         141.8626  139.6274  160.4004 C.ar    1  UNL1        0.0030
      5 C         142.2206  139.4075  158.9605 C.ar    1  UNL1        0.0006
      6 C         141.2001  139.6505  157.8884 C.ar    1  UNL1        0.0067
      7 C         139.8216  140.1134  158.2562 C.ar    1  UNL1        0.0346
      8 BR        138.8010  140.3564  157.1840 Br      1  UNL1       -0.0490
      9 C         139.4635  140.3333  159.6961 C.ar    1  UNL1        0.0067
     10 C         140.4840  140.0903  160.7682 C.ar    1  UNL1        0.0004
     11 C         140.1260  140.3101  162.2083 C.ar    1  UNL1       -0.0009
     12 C         141.1465  140.0671  163.2804 C.ar    1  UNL1        0.0181
     13 C         144.8678  140.0679  163.9357 C.3     1  UNL1        0.2525
     14 O         143.5456  139.3612  163.9847 O.3     1  UNL1       -0.4717
     15 C         139.7722  139.4054  165.3835 C.ar    1  UNL1       -0.0157
     16 C         139.0303  139.8937  166.5923 C.ar    1  UNL1       -0.0039
     17 C         138.0140  139.0121  167.2555 C.ar    1  UNL1       -0.0003
     18 C         137.7395  137.6421  166.7099 C.ar    1  UNL1       -0.0000
     19 C         138.4813  137.1537  165.5011 C.ar    1  UNL1       -0.0003
     20 C         139.4977  138.0353  164.8379 C.ar    1  UNL1       -0.0039
     21 C         141.4468  141.3885  165.4971 C.3     1  UNL1        0.1158
     22 O         142.1970  140.3708  166.3043 O.3     1  UNL1       -0.3820
     23 H         141.5800  139.6955  166.6272 H       1  UNL1        0.2107
     24 C         140.6966  142.4061  164.6899 C.ar    1  UNL1        0.0026
     25 C         139.2350  142.6325  164.9401 C.ar    1  UNL1        0.0011
     26 C         138.4848  143.6501  164.1329 C.ar    1  UNL1        0.0372
     27 C         139.1961  144.4413  163.0755 C.ar    1  UNL1        0.1454
     28 O         138.7231  145.5045  162.1290 O.2     1  UNL1       -0.4504
     29 C         139.8923  145.9351  161.2938 C.ar    1  UNL1        0.1796
     30 C         141.0879  145.1380  161.7242 C.ar    1  UNL1        0.0437
     31 C         140.6576  144.2149  162.8253 C.ar    1  UNL1        0.0375
     32 C         141.4079  143.1972  163.6325 C.ar    1  UNL1        0.0011
     33 C         142.1051  142.4899  166.2739 C.3     1  UNL1        0.0491
     34 C         143.1015  142.1601  167.3455 C.3     1  UNL1        0.0750
     35 N         142.7244  142.3040  168.7902 N.3     1  UNL1       -0.2702
     36 C         143.7886  142.2987  169.8472 C.3     1  UNL1        0.0897
     37 C         141.2830  142.4531  169.1779 C.3     1  UNL1        0.0897
@<TRIPOS>BOND
     1    13    14    1
     2    14     2    1
     3     2     3   ar
     4     3     4   ar
     5     4     5   ar
     6     5     6   ar
     7     6     7   ar
     8     7     8    1
     9     7     9   ar
    10     9    10   ar
    11    10    11   ar
    12    11    12   ar
    13     1    12    1
    14     1    15    1
    15    15    16   ar
    16    16    17   ar
    17    17    18   ar
    18    18    19   ar
    19    19    20   ar
    20     1    21    1
    21    21    22    1
    22    21    33    1
    23    33    34    1
    24    34    35    1
    25    35    36    1
    26    35    37    1
    27    21    24    1
    28    24    25   ar
    29    25    26   ar
    30    26    27   ar
    31    27    28   ar
    32    28    29   ar
    33    29    30   ar
    34    30    31   ar
    35    31    32   ar
    36    12     2   ar
    37    20    15   ar
    38    32    24   ar
    39    10     4   ar
    40    31    27   ar
    41    22    23    1
@<TRIPOS>MOLECULE
*****
 37 41 0 0 0
SMALL
GASTEIGER

@<TRIPOS>ATOM
      1 C         141.2216  140.9775  163.0011 C.3     1  UNL1        0.0760
      2 C         142.4028  142.6800  164.5684 C.ar    1  UNL1        0.1351
      3 C         142.9547  143.0388  165.9162 C.ar    1  UNL1        0.0366
      4 C         142.8773  142.0536  167.0448 C.ar    1  UNL1        0.0030
      5 C         143.4292  142.4124  168.3926 C.ar    1  UNL1        0.0006
      6 C         143.3519  141.4272  169.5211 C.ar    1  UNL1        0.0067
      7 C         142.7227  140.0834  169.3017 C.ar    1  UNL1        0.0346
      8 BR        142.6453  139.0982  170.4303 Br      1  UNL1       -0.0490
      9 C         142.1708  139.7246  167.9539 C.ar    1  UNL1        0.0067
     10 C         142.2481  140.7098  166.8254 C.ar    1  UNL1        0.0004
     11 C         141.6962  140.3511  165.4775 C.ar    1  UNL1       -0.0009
     12 C         141.7735  141.3362  164.3490 C.ar    1  UNL1        0.0181
     13 C         142.5565  145.1347  163.7309 C.3     1  UNL1        0.2525
     14 O         142.4801  143.6652  163.4398 O.3     1  UNL1       -0.4717
     15 C         142.0973  140.3020  161.9877 C.ar    1  UNL1       -0.0157
     16 C         143.2514  139.4566  162.4383 C.ar    1  UNL1       -0.0039
     17 C         144.1271  138.7812  161.4249 C.ar    1  UNL1       -0.0003
     18 C         143.8486  138.9511  159.9609 C.ar    1  UNL1       -0.0000
     19 C         142.6944  139.7966  159.5102 C.ar    1  UNL1       -0.0003
     20 C         141.8187  140.4720  160.5236 C.ar    1  UNL1       -0.0039
     21 C         139.7941  141.2942  162.6667 C.3     1  UNL1        0.1158
     22 O         140.2441  142.4860  161.8749 O.3     1  UNL1       -0.3820
     23 H         140.8662  143.0095  162.4038 H       1  UNL1        0.2107
     24 C         139.3442  140.1023  163.4585 C.ar    1  UNL1        0.0026
     25 C         139.5302  138.7205  162.9051 C.ar    1  UNL1        0.0011
     26 C         139.0802  137.5287  163.6969 C.ar    1  UNL1        0.0372
     27 C         138.4443  137.7185  165.0421 C.ar    1  UNL1        0.1454
     28 O         137.9055  136.7414  166.0445 O.2     1  UNL1       -0.4504
     29 C         137.3865  137.5192  167.2174 C.ar    1  UNL1        0.1796
     30 C         137.6046  138.9771  166.9399 C.ar    1  UNL1        0.0437
     31 C         138.2583  139.1002  165.5955 C.ar    1  UNL1        0.0375
     32 C         138.7082  140.2922  164.8037 C.ar    1  UNL1        0.0011
     33 C         138.3666  141.6109  162.3322 C.3     1  UNL1        0.0491
     34 C         137.9552  143.0288  162.0672 C.3     1  UNL1        0.0750
     35 N         138.2449  144.0958  163.0810 N.3     1  UNL1       -0.2702
     36 C         138.9550  145.3506  162.6671 C.3     1  UNL1        0.0897
     37 C         137.8245  143.9080  164.5085 C.3     1  UNL1        0.0897
@<TRIPOS>BOND
     1    13    14    1
     2    14     2    1
     3     2     3   ar
     4     3     4   ar
     5     4     5   ar
     6     5     6   ar
     7     6     7   ar
     8     7     8    1
     9     7     9   ar
    10     9    10   ar
    11    10    11   ar
    12    11    12   ar
    13     1    12    1
    14     1    15    1
    15    15    16   ar
    16    16    17   ar
    17    17    18   ar
    18    18    19   ar
    19    19    20   ar
    20     1    21    1
    21    21    22    1
    22    21    33    1
    23    33    34    1
    24    34    35    1
    25    35    36    1
    26    35    37    1
    27    21    24    1
    28    24    25   ar
    29    25    26   ar
    30    26    27   ar
    31    27    28   ar
    32    28    29   ar
    33    29    30   ar
    34    30    31   ar
    35    31    32   ar
    36    12     2   ar
    37    20    15   ar
    38    32    24   ar
    39    10     4   ar
    40    31    27   ar
    41    22    23    1
@<TRIPOS>MOLECULE
*****
 37 41 0 0 0
SMALL
GASTEIGER

@<TRIPOS>ATOM
      1 C         140.2432  139.6250  164.4832 C.3     1  UNL1        0.0760
      2 C         139.0250  139.4227  166.7691 C.ar    1  UNL1        0.1351
      3 C         138.9267  139.7731  168.2242 C.ar    1  UNL1        0.0366
      4 C         139.9486  140.6763  168.8488 C.ar    1  UNL1        0.0030
      5 C         139.8503  141.0268  170.3040 C.ar    1  UNL1        0.0006
      6 C         140.8721  141.9300  170.9285 C.ar    1  UNL1        0.0067
      7 C         141.9921  142.4828  170.0979 C.ar    1  UNL1        0.0346
      8 BR        143.0140  143.3861  170.7225 Br      1  UNL1       -0.0490
      9 C         142.0904  142.1324  168.6427 C.ar    1  UNL1        0.0067
     10 C         141.0686  141.2292  168.0182 C.ar    1  UNL1        0.0004
     11 C         141.1668  140.8787  166.5630 C.ar    1  UNL1       -0.0009
     12 C         140.1450  139.9755  165.9385 C.ar    1  UNL1        0.0181
     13 C         137.4226  137.3842  166.9347 C.3     1  UNL1        0.2525
     14 O         138.0031  138.5194  166.1445 O.3     1  UNL1       -0.4717
     15 C         141.5787  139.3148  163.8750 C.ar    1  UNL1       -0.0157
     16 C         142.8172  139.9700  164.4105 C.ar    1  UNL1       -0.0039
     17 C         144.1528  139.6598  163.8023 C.ar    1  UNL1       -0.0003
     18 C         144.2499  138.6942  162.6585 C.ar    1  UNL1       -0.0000
     19 C         143.0114  138.0389  162.1229 C.ar    1  UNL1       -0.0003
     20 C         141.6758  138.3492  162.7311 C.ar    1  UNL1       -0.0039
     21 C         139.0058  139.5849  163.6363 C.3     1  UNL1        0.1158
     22 O         138.9991  138.0871  163.7172 O.3     1  UNL1       -0.3820
     23 H         139.8825  137.7478  163.5043 H       1  UNL1        0.2107
     24 C         139.0125  141.0826  163.5555 C.ar    1  UNL1        0.0026
     25 C         138.0100  141.8804  164.3356 C.ar    1  UNL1        0.0011
     26 C         138.0167  143.3782  164.2548 C.ar    1  UNL1        0.0372
     27 C         139.0259  144.0783  163.3938 C.ar    1  UNL1        0.1454
     28 O         139.2740  145.5316  163.1177 O.2     1  UNL1       -0.4504
     29 C         140.4298  145.6321  162.1669 C.ar    1  UNL1        0.1796
     30 C         140.8961  144.2409  161.8554 C.ar    1  UNL1        0.0437
     31 C         140.0284  143.2806  162.6136 C.ar    1  UNL1        0.0375
     32 C         140.0217  141.7827  162.6945 C.ar    1  UNL1        0.0011
     33 C         137.7685  139.5447  162.7894 C.3     1  UNL1        0.0491
     34 C         137.7675  138.7803  161.4988 C.3     1  UNL1        0.0750
     35 N         138.5172  139.3105  160.3126 N.3     1  UNL1       -0.2702
     36 C         139.6611  138.5287  159.7378 C.3     1  UNL1        0.0897
     37 C         138.1230  140.6222  159.7013 C.3     1  UNL1        0.0897
@<TRIPOS>BOND
     1    13    14    1
     2    14     2    1
     3     2     3   ar
     4     3     4   ar
     5     4     5   ar
     6     5     6   ar
     7     6     7   ar
     8     7     8    1
     9     7     9   ar
    10     9    10   ar
    11    10    11   ar
    12    11    12   ar
    13     1    12    1
    14     1    15    1
    15    15    16   ar
    16    16    17   ar
    17    17    18   ar
    18    18    19   ar
    19    19    20   ar
    20     1    21    1
    21    21    22    1
    22    21    33    1
    23    33    34    1
    24    34    35    1
    25    35    36    1
    26    35    37    1
    27    21    24    1
    28    24    25   ar
    29    25    26   ar
    30    26    27   ar
    31    27    28   ar
    32    28    29   ar
    33    29    30   ar
    34    30    31   ar
    35    31    32   ar
    36    12     2   ar
    37    20    15   ar
    38    32    24   ar
    39    10     4   ar
    40    31    27   ar
    41    22    23    1
@<TRIPOS>MOLECULE
*****
 37 41 0 0 0
SMALL
GASTEIGER

@<TRIPOS>ATOM
      1 C         140.9518  142.0218  163.5583 C.3     1  UNL1        0.0760
      2 C         140.4787  143.1378  165.8563 C.ar    1  UNL1        0.1351
      3 C         140.5500  143.1076  167.3543 C.ar    1  UNL1        0.0366
      4 C         141.1657  141.9312  168.0524 C.ar    1  UNL1        0.0030
      5 C         141.2369  141.9011  169.5503 C.ar    1  UNL1        0.0006
      6 C         141.8526  140.7248  170.2483 C.ar    1  UNL1        0.0067
      7 C         142.3970  139.5786  169.4483 C.ar    1  UNL1        0.0346
      8 BR        143.0127  138.4023  170.1464 Br      1  UNL1       -0.0490
      9 C         142.3257  139.6088  167.9503 C.ar    1  UNL1        0.0067
     10 C         141.7100  140.7851  167.2524 C.ar    1  UNL1        0.0004
     11 C         141.6387  140.8153  165.7543 C.ar    1  UNL1       -0.0009
     12 C         141.0231  141.9916  165.0563 C.ar    1  UNL1        0.0181
     13 C         138.5769  144.8974  165.6639 C.3     1  UNL1        0.2525
     14 O         139.8630  144.3141  165.1583 O.3     1  UNL1       -0.4717
     15 C         142.2129  142.0848  162.7486 C.ar    1  UNL1       -0.0157
     16 C         142.4091  141.1499  161.5921 C.ar    1  UNL1       -0.0039
     17 C         143.6702  141.2129  160.7824 C.ar    1  UNL1       -0.0003
     18 C         144.7351  142.2107  161.1291 C.ar    1  UNL1       -0.0000
     19 C         144.5389  143.1457  162.2856 C.ar    1  UNL1       -0.0003
     20 C         143.2778  143.0827  163.0954 C.ar    1  UNL1       -0.0039
     21 C         139.6194  141.9891  162.8700 C.3     1  UNL1        0.1158
     22 O         139.9168  143.3133  162.2314 O.3     1  UNL1       -0.3820
     23 H         140.2272  143.9359  162.9074 H       1  UNL1        0.2107
     24 C         139.3221  140.6649  163.5087 C.ar    1  UNL1        0.0026
     25 C         139.7526  139.3946  162.8369 C.ar    1  UNL1        0.0011
     26 C         139.4552  138.0704  163.4755 C.ar    1  UNL1        0.0372
     27 C         138.7274  138.0163  164.7860 C.ar    1  UNL1        0.1454
     28 O         138.2975  136.8669  165.6487 O.2     1  UNL1       -0.4504
     29 C         137.6013  137.4268  166.8536 C.ar    1  UNL1        0.1796
     30 C         137.6009  138.9221  166.7356 C.ar    1  UNL1        0.0437
     31 C         138.2969  139.2864  165.4578 C.ar    1  UNL1        0.0375
     32 C         138.5942  140.6108  164.8192 C.ar    1  UNL1        0.0011
     33 C         138.2871  141.9563  162.1818 C.3     1  UNL1        0.0491
     34 C         138.1152  142.6214  160.8483 C.3     1  UNL1        0.0750
     35 N         138.9161  142.1550  159.6688 N.3     1  UNL1       -0.2702
     36 C         139.1077  140.6874  159.4254 C.3     1  UNL1        0.0897
     37 C         139.5255  143.1563  158.7329 C.3     1  UNL1        0.0897
@<TRIPOS>BOND
     1    13    14    1
     2    14     2    1
     3     2     3   ar
     4     3     4   ar
     5     4     5   ar
     6     5     6   ar
     7     6     7   ar
     8     7     8    1
     9     7     9   ar
    10     9    10   ar
    11    10    11   ar
    12    11    12   ar
    13     1    12    1
    14     1    15    1
    15    15    16   ar
    16    16    17   ar
    17    17    18   ar
    18    18    19   ar
    19    19    20   ar
    20     1    21    1
    21    21    22    1
    22    21    33    1
    23    33    34    1
    24    34    35    1
    25    35    36    1
    26    35    37    1
    27    21    24    1
    28    24    25   ar
    29    25    26   ar
    30    26    27   ar
    31    27    28   ar
    32    28    29   ar
    33    29    30   ar
    34    30    31   ar
    35    31    32   ar
    36    12     2   ar
    37    20    15   ar
    38    32    24   ar
    39    10     4   ar
    40    31    27   ar
    41    22    23    1
@<TRIPOS>MOLECULE
*****
 37 41 0 0 0
SMALL
GASTEIGER

@<TRIPOS>ATOM
      1 C         140.6749  140.5275  163.8740 C.3     1  UNL1        0.0760
      2 C         141.9593  140.0796  161.6605 C.ar    1  UNL1        0.1351
      3 C         141.9760  139.9919  160.1631 C.ar    1  UNL1        0.0366
      4 C         140.7247  140.2645  159.3819 C.ar    1  UNL1        0.0030
      5 C         140.7414  140.1768  157.8846 C.ar    1  UNL1        0.0006
      6 C         139.4902  140.4494  157.1035 C.ar    1  UNL1        0.0067
      7 C         138.2224  140.8096  157.8196 C.ar    1  UNL1        0.0346
      8 BR        136.9712  141.0822  157.0384 Br      1  UNL1       -0.0490
      9 C         138.2058  140.8973  159.3169 C.ar    1  UNL1        0.0067
     10 C         139.4569  140.6247  160.0981 C.ar    1  UNL1        0.0004
     11 C         139.4403  140.7124  161.5955 C.ar    1  UNL1       -0.0009
     12 C         140.6915  140.4398  162.3766 C.ar    1  UNL1        0.0181
     13 C         143.7252  138.4037  162.5678 C.3     1  UNL1        0.2525
     14 O         143.2105  139.8070  162.4417 O.3     1  UNL1       -0.4717
     15 C         139.8009  139.6039  164.6697 C.ar    1  UNL1       -0.0157
     16 C         139.0039  140.1347  165.8242 C.ar    1  UNL1       -0.0039
     17 C         138.1299  139.2111  166.6199 C.ar    1  UNL1       -0.0003
     18 C         138.0529  137.7567  166.2611 C.ar    1  UNL1       -0.0000
     19 C         138.8500  137.2258  165.1065 C.ar    1  UNL1       -0.0003
     20 C         139.7240  138.1494  164.3108 C.ar    1  UNL1       -0.0039
     21 C         141.5323  141.5387  164.5757 C.3     1  UNL1        0.1158
     22 O         142.3356  140.4311  165.1903 O.3     1  UNL1       -0.3820
     23 H         141.7368  139.7769  165.5832 H       1  UNL1        0.2107
     24 C         140.7290  142.6463  163.9610 C.ar    1  UNL1        0.0026
     25 C         139.3983  143.0202  164.5437 C.ar    1  UNL1        0.0011
     26 C         138.5949  144.1278  163.9290 C.ar    1  UNL1        0.0372
     27 C         139.1222  144.8615  162.7317 C.ar    1  UNL1        0.1454
     28 O         138.5595  145.9881  161.9168 O.2     1  UNL1       -0.4504
     29 C         139.5423  146.3105  160.8305 C.ar    1  UNL1        0.1796
     30 C         140.7125  145.3831  160.9740 C.ar    1  UNL1        0.0437
     31 C         140.4529  144.4876  162.1490 C.ar    1  UNL1        0.0375
     32 C         141.2563  143.3800  162.7636 C.ar    1  UNL1        0.0011
     33 C         142.3897  142.5499  165.2773 C.3     1  UNL1        0.0491
     34 C         143.8701  142.3330  165.3842 C.3     1  UNL1        0.0750
     35 N         144.7305  142.4143  164.1582 N.3     1  UNL1       -0.2702
     36 C         145.7951  141.3849  163.9194 C.3     1  UNL1        0.0897
     37 C         144.5263  143.5250  163.1709 C.3     1  UNL1        0.0897
@<TRIPOS>BOND
     1    13    14    1
     2    14     2    1
     3     2     3   ar
     4     3     4   ar
     5     4     5   ar
     6     5     6   ar
     7     6     7   ar
     8     7     8    1
     9     7     9   ar
    10     9    10   ar
    11    10    11   ar
    12    11    12   ar
    13     1    12    1
    14     1    15    1
    15    15    16   ar
    16    16    17   ar
    17    17    18   ar
    18    18    19   ar
    19    19    20   ar
    20     1    21    1
    21    21    22    1
    22    21    33    1
    23    33    34    1
    24    34    35    1
    25    35    36    1
    26    35    37    1
    27    21    24    1
    28    24    25   ar
    29    25    26   ar
    30    26    27   ar
    31    27    28   ar
    32    28    29   ar
    33    29    30   ar
    34    30    31   ar
    35    31    32   ar
    36    12     2   ar
    37    20    15   ar
    38    32    24   ar
    39    10     4   ar
    40    31    27   ar
    41    22    23    1
@<TRIPOS>MOLECULE
*****
 37 41 0 0 0
SMALL
GASTEIGER

@<TRIPOS>ATOM
      1 C         141.4154  140.5730  162.7778 C.3     1  UNL1        0.0760
      2 C         141.7816  139.1397  164.9136 C.ar    1  UNL1        0.1351
      3 C         141.7968  139.0164  166.4084 C.ar    1  UNL1        0.0366
      4 C         141.4609  140.2030  167.2624 C.ar    1  UNL1        0.0030
      5 C         141.4761  140.0796  168.7572 C.ar    1  UNL1        0.0006
      6 C         141.1402  141.2662  169.6111 C.ar    1  UNL1        0.0067
      7 C         140.7892  142.5762  168.9701 C.ar    1  UNL1        0.0346
      8 BR        140.4533  143.7628  169.8241 Br      1  UNL1       -0.0490
      9 C         140.7740  142.6995  167.4753 C.ar    1  UNL1        0.0067
     10 C         141.1099  141.5130  166.6214 C.ar    1  UNL1        0.0004
     11 C         141.0947  141.6363  165.1265 C.ar    1  UNL1       -0.0009
     12 C         141.4306  140.4497  164.2727 C.ar    1  UNL1        0.0181
     13 C         141.0759  136.9099  163.7821 C.3     1  UNL1        0.2525
     14 O         142.1175  137.9531  164.0596 O.3     1  UNL1       -0.4717
     15 C         140.1680  140.2476  162.0110 C.ar    1  UNL1       -0.0157
     16 C         138.8922  140.9777  162.3096 C.ar    1  UNL1       -0.0039
     17 C         137.6447  140.6523  161.5428 C.ar    1  UNL1       -0.0003
     18 C         137.6730  139.5968  160.4775 C.ar    1  UNL1       -0.0000
     19 C         138.9489  138.8666  160.1789 C.ar    1  UNL1       -0.0003
     20 C         140.1963  139.1920  160.9456 C.ar    1  UNL1       -0.0039
     21 C         142.6477  141.0217  162.0497 C.3     1  UNL1        0.1158
     22 O         143.3949  139.8356  162.5833 O.3     1  UNL1       -0.3820
     23 H         143.2550  139.7694  163.5409 H       1  UNL1        0.2107
     24 C         141.9005  142.2079  161.5161 C.ar    1  UNL1        0.0026
     25 C         141.5996  142.3073  160.0499 C.ar    1  UNL1        0.0011
     26 C         140.8525  143.4934  159.5163 C.ar    1  UNL1        0.0372
     27 C         140.4061  144.5802  160.4489 C.ar    1  UNL1        0.1454
     28 O         139.6578  145.8590  160.2149 O.2     1  UNL1       -0.4504
     29 C         139.4962  146.5499  161.5364 C.ar    1  UNL1        0.1796
     30 C         140.1446  145.6982  162.5872 C.ar    1  UNL1        0.0437
     31 C         140.7070  144.4809  161.9150 C.ar    1  UNL1        0.0375
     32 C         141.4542  143.2947  162.4487 C.ar    1  UNL1        0.0011
     33 C         143.8800  141.4705  161.3217 C.3     1  UNL1        0.0491
     34 C         144.8275  142.4333  161.9736 C.3     1  UNL1        0.0750
     35 N         145.0476  142.3810  163.4565 N.3     1  UNL1       -0.2702
     36 C         144.3965  143.3968  164.3477 C.3     1  UNL1        0.0897
     37 C         145.9189  141.3129  164.0482 C.3     1  UNL1        0.0897
@<TRIPOS>BOND
     1    13    14    1
     2    14     2    1
     3     2     3   ar
     4     3     4   ar
     5     4     5   ar
     6     5     6   ar
     7     6     7   ar
     8     7     8    1
     9     7     9   ar
    10     9    10   ar
    11    10    11   ar
    12    11    12   ar
    13     1    12    1
    14     1    15    1
    15    15    16   ar
    16    16    17   ar
    17    17    18   ar
    18    18    19   ar
    19    19    20   ar
    20     1    21    1
    21    21    22    1
    22    21    33    1
    23    33    34    1
    24    34    35    1
    25    35    36    1
    26    35    37    1
    27    21    24    1
    28    24    25   ar
    29    25    26   ar
    30    26    27   ar
    31    27    28   ar
    32    28    29   ar
    33    29    30   ar
    34    30    31   ar
    35    31    32   ar
    36    12     2   ar
    37    20    15   ar
    38    32    24   ar
    39    10     4   ar
    40    31    27   ar
    41    22    23    1
@<TRIPOS>MOLECULE
*****
 37 41 0 0 0
SMALL
GASTEIGER

@<TRIPOS>ATOM
      1 C         142.0015  139.5879  164.3209 C.3     1  UNL1        0.0760
      2 C         142.8545  139.1137  166.7288 C.ar    1  UNL1        0.1351
      3 C         142.9290  139.4914  168.1785 C.ar    1  UNL1        0.0366
      4 C         142.2249  140.7213  168.6702 C.ar    1  UNL1        0.0030
      5 C         142.2994  141.0991  170.1199 C.ar    1  UNL1        0.0006
      6 C         141.5953  142.3289  170.6116 C.ar    1  UNL1        0.0067
      7 C         140.8167  143.1809  169.6535 C.ar    1  UNL1        0.0346
      8 BR        140.1126  144.4108  170.1452 Br      1  UNL1       -0.0490
      9 C         140.7422  142.8032  168.2038 C.ar    1  UNL1        0.0067
     10 C         141.4463  141.5734  167.7122 C.ar    1  UNL1        0.0004
     11 C         141.3719  141.1955  166.2624 C.ar    1  UNL1       -0.0009
     12 C         142.0760  139.9657  165.7707 C.ar    1  UNL1        0.0181
     13 C         144.6153  137.2361  167.0821 C.3     1  UNL1        0.2525
     14 O         143.5586  137.8838  166.2371 O.3     1  UNL1       -0.4717
     15 C         140.7568  138.9542  163.7740 C.ar    1  UNL1       -0.0157
     16 C         139.9220  138.0650  164.6472 C.ar    1  UNL1       -0.0039
     17 C         138.6773  137.4313  164.1003 C.ar    1  UNL1       -0.0003
     18 C         138.2673  137.6868  162.6802 C.ar    1  UNL1       -0.0000
     19 C         139.1021  138.5761  161.8070 C.ar    1  UNL1       -0.0003
     20 C         140.3468  139.2097  162.3539 C.ar    1  UNL1       -0.0039
     21 C         143.1717  139.8437  163.4182 C.3     1  UNL1        0.1158
     22 O         143.4134  138.3671  163.3130 O.3     1  UNL1       -0.3820
     23 H         143.4153  137.9757  164.2005 H       1  UNL1        0.2107
     24 C         142.9300  141.3203  163.5234 C.ar    1  UNL1        0.0026
     25 C         143.8455  142.1731  164.3510 C.ar    1  UNL1        0.0011
     26 C         143.6038  143.6497  164.4562 C.ar    1  UNL1        0.0372
     27 C         142.4467  144.2737  163.7338 C.ar    1  UNL1        0.1454
     28 O         141.9615  145.6906  163.6507 O.2     1  UNL1       -0.4504
     29 C         140.7463  145.7136  162.7717 C.ar    1  UNL1        0.1796
     30 C         140.4804  144.3109  162.3116 C.ar    1  UNL1        0.0437
     31 C         141.5313  143.4210  162.9062 C.ar    1  UNL1        0.0375
     32 C         141.7730  141.9443  162.8010 C.ar    1  UNL1        0.0011
     33 C         144.3420  140.0996  162.5154 C.3     1  UNL1        0.0491
     34 C         144.4837  139.3309  161.2351 C.3     1  UNL1        0.0750
     35 N         143.3257  139.2339  160.2865 N.3     1  UNL1       -0.2702
     36 C         142.7352  140.4790  159.6940 C.3     1  UNL1        0.0897
     37 C         142.7584  137.8918  159.9303 C.3     1  UNL1        0.0897
@<TRIPOS>BOND
     1    13    14    1
     2    14     2    1
     3     2     3   ar
     4     3     4   ar
     5     4     5   ar
     6     5     6   ar
     7     6     7   ar
     8     7     8    1
     9     7     9   ar
    10     9    10   ar
    11    10    11   ar
    12    11    12   ar
    13     1    12    1
    14     1    15    1
    15    15    16   ar
    16    16    17   ar
    17    17    18   ar
    18    18    19   ar
    19    19    20   ar
    20     1    21    1
    21    21    22    1
    22    21    33    1
    23    33    34    1
    24    34    35    1
    25    35    36    1
    26    35    37    1
    27    21    24    1
    28    24    25   ar
    29    25    26   ar
    30    26    27   ar
    31    27    28   ar
    32    28    29   ar
    33    29    30   ar
    34    30    31   ar
    35    31    32   ar
    36    12     2   ar
    37    20    15   ar
    38    32    24   ar
    39    10     4   ar
    40    31    27   ar
    41    22    23    1
