@<TRIPOS>MOLECULE
*****
 28 31 0 0 0
SMALL
GASTEIGER

@<TRIPOS>ATOM
      1 C         140.8105  142.0253  169.4574 C.ar    1  UNL1        0.1366
      2 C         141.6324  140.8048  169.7485 C.ar    1  UNL1        0.0353
      3 C         142.0858  139.9204  168.6250 C.ar    1  UNL1        0.0631
      4 CL        142.9077  138.6998  168.9162 Cl      1  UNL1       -0.0821
      5 C         141.7172  140.2565  167.2104 C.ar    1  UNL1        0.0574
      6 C         142.0178  139.5783  165.9067 C.ar    1  UNL1        0.0850
      7 CL        142.8147  138.3197  165.7307 Cl      1  UNL1       -0.0799
      8 C         141.3816  140.3797  164.8098 C.ar    1  UNL1        0.1143
      9 N         140.6879  141.5532  165.4356 N.ar    1  UNL1       -0.3061
     10 C         140.8953  141.4770  166.9193 C.ar    1  UNL1        0.1460
     11 N         140.4419  142.3614  168.0428 N.ar    1  UNL1       -0.2236
     12 C         139.9213  142.6161  164.7059 C.3     1  UNL1        0.1031
     13 C         138.5768  142.3023  164.1195 C.3     1  UNL1        0.0255
     14 C         137.8103  143.3654  163.3899 C.3     1  UNL1        0.0191
     15 C         138.3882  144.7421  163.2466 C.3     1  UNL1        0.0687
     16 N         139.7327  145.0559  163.8330 N.3     1  UNL1       -0.2959
     17 C         140.4992  143.9929  164.5627 C.3     1  UNL1        0.0914
     18 H         139.5954  145.8236  164.4905 H       1  UNL1        0.1233
     19 N         139.9991  144.3411  170.3111 N.am    1  UNL1       -0.3241
     20 C         140.3571  142.9097  170.5809 C.2     1  UNL1        0.2606
     21 O         140.2616  142.3626  171.9743 O.2     1  UNL1       -0.2687
     22 H         139.7015  144.9215  171.0485 H       1  UNL1        0.1453
     23 H         140.0617  144.7001  169.3965 H       1  UNL1        0.1453
     24 C         141.4306  140.0631  163.3443 C.1     1  UNL1       -0.0460
     25 C         141.4797  139.7466  161.8790 C.1     1  UNL1       -0.0860
     26 C         141.5288  139.4300  160.4136 C.3     1  UNL1        0.0646
     27 C         141.0037  138.6730  159.2299 C.3     1  UNL1        0.0140
     28 C         142.1388  139.6386  159.0593 C.3     1  UNL1        0.0140
@<TRIPOS>BOND
     1    19    20   am
     2    20    21    2
     3    20     1    1
     4     1     2   ar
     5     2     3   ar
     6     3     4    1
     7     3     5   ar
     8     5     6   ar
     9     6     7    1
    10     6     8   ar
    11     8    24    1
    12    24    25    3
    13    25    26    1
    14    26    27    1
    15    27    28    1
    16     8     9   ar
    17     9    12    1
    18    12    13    1
    19    13    14    1
    20    14    15    1
    21    15    16    1
    22    16    17    1
    23     9    10   ar
    24    10    11   ar
    25    11     1   ar
    26    10     5   ar
    27    28    26    1
    28    17    12    1
    29    19    22    1
    30    19    23    1
    31    16    18    1
@<TRIPOS>MOLECULE
*****
 28 31 0 0 0
SMALL
GASTEIGER

@<TRIPOS>ATOM
      1 C         140.8722  142.4029  169.0036 C.ar    1  UNL1        0.1366
      2 C         141.5480  141.1084  169.3468 C.ar    1  UNL1        0.0353
      3 C         142.1847  140.2853  168.2665 C.ar    1  UNL1        0.0631
      4 CL        142.8604  138.9908  168.6098 Cl      1  UNL1       -0.0821
      5 C         142.1456  140.7565  166.8430 C.ar    1  UNL1        0.0574
      6 C         142.6826  140.1634  165.5743 C.ar    1  UNL1        0.0850
      7 CL        143.4319  138.8695  165.4540 Cl      1  UNL1       -0.0799
      8 C         142.3387  141.0912  164.4469 C.ar    1  UNL1        0.1143
      9 N         141.5893  142.2578  165.0189 N.ar    1  UNL1       -0.3061
     10 C         141.4699  142.0510  166.4999 C.ar    1  UNL1        0.1460
     11 N         140.8332  142.8741  167.5801 N.ar    1  UNL1       -0.2236
     12 C         141.0532  143.4261  164.2458 C.3     1  UNL1        0.1031
     13 C         139.6444  143.4022  163.7313 C.3     1  UNL1        0.0255
     14 C         139.1085  144.5705  162.9582 C.3     1  UNL1        0.0191
     15 C         139.9812  145.7628  162.6997 C.3     1  UNL1        0.0687
     16 N         141.3900  145.7867  163.2142 N.3     1  UNL1       -0.2959
     17 C         141.9259  144.6184  163.9873 C.3     1  UNL1        0.0914
     18 H         141.4678  146.6024  163.8217 H       1  UNL1        0.1233
     19 N         139.8761  142.5933  171.3955 N.am    1  UNL1       -0.3241
     20 C         140.2355  143.2260  170.0839 C.2     1  UNL1        0.2606
     21 O         139.9583  144.6819  169.8526 O.2     1  UNL1       -0.2687
     22 H         139.4582  143.1336  172.1046 H       1  UNL1        0.1453
     23 H         140.0580  141.6378  171.5474 H       1  UNL1        0.1453
     24 C         142.6838  140.8880  163.0013 C.1     1  UNL1       -0.0460
     25 C         143.0289  140.6848  161.5558 C.1     1  UNL1       -0.0860
     26 C         143.3740  140.4815  160.1103 C.3     1  UNL1        0.0646
     27 C         143.4140  139.6026  158.8954 C.3     1  UNL1        0.0140
     28 C         143.9316  141.0084  158.8213 C.3     1  UNL1        0.0140
@<TRIPOS>BOND
     1    19    20   am
     2    20    21    2
     3    20     1    1
     4     1     2   ar
     5     2     3   ar
     6     3     4    1
     7     3     5   ar
     8     5     6   ar
     9     6     7    1
    10     6     8   ar
    11     8    24    1
    12    24    25    3
    13    25    26    1
    14    26    27    1
    15    27    28    1
    16     8     9   ar
    17     9    12    1
    18    12    13    1
    19    13    14    1
    20    14    15    1
    21    15    16    1
    22    16    17    1
    23     9    10   ar
    24    10    11   ar
    25    11     1   ar
    26    10     5   ar
    27    28    26    1
    28    17    12    1
    29    19    22    1
    30    19    23    1
    31    16    18    1
@<TRIPOS>MOLECULE
*****
 28 31 0 0 0
SMALL
GASTEIGER

@<TRIPOS>ATOM
      1 C         141.9974  142.0198  169.0639 C.ar    1  UNL1        0.1366
      2 C         140.8540  141.1236  169.4368 C.ar    1  UNL1        0.0353
      3 C         139.9064  140.6376  168.3804 C.ar    1  UNL1        0.0631
      4 CL        138.7629  139.7413  168.7534 Cl      1  UNL1       -0.0821
      5 C         140.1023  141.0480  166.9510 C.ar    1  UNL1        0.0574
      6 C         139.3363  140.7295  165.7013 C.ar    1  UNL1        0.0850
      7 CL        138.1147  139.8636  165.6126 Cl      1  UNL1       -0.0799
      8 C         140.0063  141.4290  164.5560 C.ar    1  UNL1        0.1143
      9 N         141.1865  142.1798  165.0978 N.ar    1  UNL1       -0.3061
     10 C         141.2458  141.9442  166.5780 C.ar    1  UNL1        0.1460
     11 N         142.1933  142.4302  167.6345 N.ar    1  UNL1       -0.2236
     12 C         142.1399  143.0187  164.2996 C.3     1  UNL1        0.1031
     13 C         143.4361  142.4332  163.8230 C.3     1  UNL1        0.0255
     14 C         144.3895  143.2722  163.0249 C.3     1  UNL1        0.0191
     15 C         144.0467  144.6967  162.7032 C.3     1  UNL1        0.0687
     16 N         142.7505  145.2821  163.1797 N.3     1  UNL1       -0.2959
     17 C         141.7971  144.4431  163.9779 C.3     1  UNL1        0.0914
     18 H         142.2453  145.5934  162.3501 H       1  UNL1        0.1233
     19 N         142.4578  142.7234  171.5221 N.am    1  UNL1       -0.3241
     20 C         142.9450  142.5058  170.1203 C.2     1  UNL1        0.2606
     21 O         144.3798  142.7741  169.7749 O.2     1  UNL1       -0.2687
     22 H         143.0797  143.0423  172.2155 H       1  UNL1        0.1453
     23 H         141.5160  142.5472  171.7489 H       1  UNL1        0.1453
     24 C         139.5724  141.3854  163.1207 C.1     1  UNL1       -0.0460
     25 C         139.1384  141.3417  161.6856 C.1     1  UNL1       -0.0860
     26 C         138.7043  141.2981  160.2504 C.3     1  UNL1        0.0646
     27 C         138.2044  140.5230  159.0675 C.3     1  UNL1        0.0140
     28 C         138.4525  141.9974  158.9476 C.3     1  UNL1        0.0140
@<TRIPOS>BOND
     1    19    20   am
     2    20    21    2
     3    20     1    1
     4     1     2   ar
     5     2     3   ar
     6     3     4    1
     7     3     5   ar
     8     5     6   ar
     9     6     7    1
    10     6     8   ar
    11     8    24    1
    12    24    25    3
    13    25    26    1
    14    26    27    1
    15    27    28    1
    16     8     9   ar
    17     9    12    1
    18    12    13    1
    19    13    14    1
    20    14    15    1
    21    15    16    1
    22    16    17    1
    23     9    10   ar
    24    10    11   ar
    25    11     1   ar
    26    10     5   ar
    27    28    26    1
    28    17    12    1
    29    19    22    1
    30    19    23    1
    31    16    18    1
@<TRIPOS>MOLECULE
*****
 28 31 0 0 0
SMALL
GASTEIGER

@<TRIPOS>ATOM
      1 C         141.6610  141.3593  169.3832 C.ar    1  UNL1        0.1366
      2 C         140.3130  140.7434  169.6141 C.ar    1  UNL1        0.0353
      3 C         139.5617  140.1319  168.4689 C.ar    1  UNL1        0.0631
      4 CL        138.2136  139.5159  168.6999 Cl      1  UNL1       -0.0821
      5 C         140.1584  140.1363  167.0927 C.ar    1  UNL1        0.0574
      6 C         139.6569  139.6126  165.7796 C.ar    1  UNL1        0.0850
      7 CL        138.3473  138.9185  165.5494 Cl      1  UNL1       -0.0799
      8 C         140.6951  139.9049  164.7371 C.ar    1  UNL1        0.1143
      9 N         141.8381  140.6092  165.4059 N.ar    1  UNL1       -0.3061
     10 C         141.5064  140.7522  166.8618 C.ar    1  UNL1        0.1460
     11 N         142.2577  141.3637  168.0070 N.ar    1  UNL1       -0.2236
     12 C         143.0926  141.0867  164.7364 C.3     1  UNL1        0.1031
     13 C         144.2729  140.1692  164.6132 C.3     1  UNL1        0.0255
     14 C         145.5273  140.6468  163.9437 C.3     1  UNL1        0.0191
     15 C         145.6015  142.0418  163.3974 C.3     1  UNL1        0.0687
     16 N         144.4213  142.9593  163.5206 N.3     1  UNL1       -0.2959
     17 C         143.1668  142.4817  164.1901 C.3     1  UNL1        0.0914
     18 H         144.1627  143.2353  162.5733 H       1  UNL1        0.1233
     19 N         143.8608  142.3273  170.3701 N.am    1  UNL1       -0.3241
     20 C         142.4124  141.9708  170.5284 C.2     1  UNL1        0.2606
     21 O         141.7154  142.2258  171.8319 O.2     1  UNL1       -0.2687
     22 H         144.3539  142.7287  171.1218 H       1  UNL1        0.1453
     23 H         144.3183  142.1600  169.5146 H       1  UNL1        0.1453
     24 C         140.6057  139.5544  163.2813 C.1     1  UNL1       -0.0460
     25 C         140.5164  139.2038  161.8256 C.1     1  UNL1       -0.0860
     26 C         140.4271  138.8533  160.3699 C.3     1  UNL1        0.0646
     27 C         139.6010  138.5655  159.1514 C.3     1  UNL1        0.0140
     28 C         141.0983  138.5339  159.0671 C.3     1  UNL1        0.0140
@<TRIPOS>BOND
     1    19    20   am
     2    20    21    2
     3    20     1    1
     4     1     2   ar
     5     2     3   ar
     6     3     4    1
     7     3     5   ar
     8     5     6   ar
     9     6     7    1
    10     6     8   ar
    11     8    24    1
    12    24    25    3
    13    25    26    1
    14    26    27    1
    15    27    28    1
    16     8     9   ar
    17     9    12    1
    18    12    13    1
    19    13    14    1
    20    14    15    1
    21    15    16    1
    22    16    17    1
    23     9    10   ar
    24    10    11   ar
    25    11     1   ar
    26    10     5   ar
    27    28    26    1
    28    17    12    1
    29    19    22    1
    30    19    23    1
    31    16    18    1
@<TRIPOS>MOLECULE
*****
 28 31 0 0 0
SMALL
GASTEIGER

@<TRIPOS>ATOM
      1 C         142.0847  144.0867  159.9441 C.ar    1  UNL1        0.1366
      2 C         141.0498  145.1547  160.1394 C.ar    1  UNL1        0.0353
      3 C         140.3606  145.2980  161.4640 C.ar    1  UNL1        0.0631
      4 CL        139.3256  146.3661  161.6593 Cl      1  UNL1       -0.0821
      5 C         140.7064  144.3733  162.5932 C.ar    1  UNL1        0.0574
      6 C         140.1981  144.2742  164.0010 C.ar    1  UNL1        0.0850
      7 CL        139.1526  145.1506  164.6245 Cl      1  UNL1       -0.0799
      8 C         140.9189  143.1450  164.6757 C.ar    1  UNL1        0.1143
      9 N         141.8727  142.5461  163.6850 N.ar    1  UNL1       -0.3061
     10 C         141.7414  143.3053  162.3979 C.ar    1  UNL1        0.1460
     11 N         142.4305  143.1620  161.0733 N.ar    1  UNL1       -0.2236
     12 C         142.7958  141.3909  163.9370 C.3     1  UNL1        0.1031
     13 C         144.2756  141.6192  164.0270 C.3     1  UNL1        0.0255
     14 C         145.1986  140.4639  164.2790 C.3     1  UNL1        0.0191
     15 C         144.6418  139.0806  164.4410 C.3     1  UNL1        0.0687
     16 N         143.1620  138.8523  164.3510 N.3     1  UNL1       -0.2959
     17 C         142.2390  140.0076  164.0990 C.3     1  UNL1        0.0914
     18 H         142.8744  138.4331  165.2352 H       1  UNL1        0.1233
     19 N         142.7838  145.0891  157.6514 N.am    1  UNL1       -0.3241
     20 C         142.7738  143.9434  158.6195 C.2     1  UNL1        0.2606
     21 O         143.4530  142.6544  158.2629 O.2     1  UNL1       -0.2687
     22 H         143.2361  144.9951  156.7820 H       1  UNL1        0.1453
     23 H         142.3381  145.9352  157.8854 H       1  UNL1        0.1453
     24 C         140.7207  142.6938  166.0925 C.1     1  UNL1       -0.0460
     25 C         140.5225  142.2427  167.5093 C.1     1  UNL1       -0.0860
     26 C         140.3243  141.7916  168.9260 C.3     1  UNL1        0.0646
     27 C         140.7024  141.8598  170.3759 C.3     1  UNL1        0.0140
     28 C         139.6030  140.9420  169.9299 C.3     1  UNL1        0.0140
@<TRIPOS>BOND
     1    19    20   am
     2    20    21    2
     3    20     1    1
     4     1     2   ar
     5     2     3   ar
     6     3     4    1
     7     3     5   ar
     8     5     6   ar
     9     6     7    1
    10     6     8   ar
    11     8    24    1
    12    24    25    3
    13    25    26    1
    14    26    27    1
    15    27    28    1
    16     8     9   ar
    17     9    12    1
    18    12    13    1
    19    13    14    1
    20    14    15    1
    21    15    16    1
    22    16    17    1
    23     9    10   ar
    24    10    11   ar
    25    11     1   ar
    26    10     5   ar
    27    28    26    1
    28    17    12    1
    29    19    22    1
    30    19    23    1
    31    16    18    1
@<TRIPOS>MOLECULE
*****
 28 31 0 0 0
SMALL
GASTEIGER

@<TRIPOS>ATOM
      1 C         141.5534  139.9448  168.9589 C.ar    1  UNL1        0.1366
      2 C         142.6510  138.9830  168.6125 C.ar    1  UNL1        0.0353
      3 C         143.0690  138.8052  167.1829 C.ar    1  UNL1        0.0631
      4 CL        144.1667  137.8434  166.8366 Cl      1  UNL1       -0.0821
      5 C         142.3893  139.5892  166.0997 C.ar    1  UNL1        0.0574
      6 C         142.5847  139.6248  164.6129 C.ar    1  UNL1        0.0850
      7 CL        143.5820  138.8182  163.8352 Cl      1  UNL1       -0.0799
      8 C         141.6078  140.6087  164.0404 C.ar    1  UNL1        0.1143
      9 N         140.8086  141.1811  165.1734 N.ar    1  UNL1       -0.3061
     10 C         141.2916  140.5510  166.4461 C.ar    1  UNL1        0.1460
     11 N         140.8736  140.7288  167.8757 N.ar    1  UNL1       -0.2236
     12 C         139.7179  142.2039  165.0545 C.3     1  UNL1        0.1031
     13 C         139.9936  143.6377  165.3986 C.3     1  UNL1        0.0255
     14 C         138.9029  144.6605  165.2798 C.3     1  UNL1        0.0191
     15 C         137.5366  144.2496  164.8168 C.3     1  UNL1        0.0687
     16 N         137.2609  142.8159  164.4727 N.3     1  UNL1       -0.2959
     17 C         138.3516  141.7931  164.5915 C.3     1  UNL1        0.0914
     18 H         136.9478  142.8010  163.5020 H       1  UNL1        0.1233
     19 N         142.1308  140.5907  171.4082 N.am    1  UNL1       -0.3241
     20 C         141.1354  140.1227  170.3884 C.2     1  UNL1        0.2606
     21 O         139.7220  139.8325  170.7983 O.2     1  UNL1       -0.2687
     22 H         141.8565  140.7074  172.3465 H       1  UNL1        0.1453
     23 H         143.0585  140.7812  171.1393 H       1  UNL1        0.1453
     24 C         141.4567  140.9586  162.5896 C.1     1  UNL1       -0.0460
     25 C         141.3055  141.3086  161.1389 C.1     1  UNL1       -0.0860
     26 C         141.1544  141.6585  159.6882 C.3     1  UNL1        0.0646
     27 C         140.2909  142.0829  158.5374 C.3     1  UNL1        0.0140
     28 C         141.7560  141.8403  158.3262 C.3     1  UNL1        0.0140
@<TRIPOS>BOND
     1    19    20   am
     2    20    21    2
     3    20     1    1
     4     1     2   ar
     5     2     3   ar
     6     3     4    1
     7     3     5   ar
     8     5     6   ar
     9     6     7    1
    10     6     8   ar
    11     8    24    1
    12    24    25    3
    13    25    26    1
    14    26    27    1
    15    27    28    1
    16     8     9   ar
    17     9    12    1
    18    12    13    1
    19    13    14    1
    20    14    15    1
    21    15    16    1
    22    16    17    1
    23     9    10   ar
    24    10    11   ar
    25    11     1   ar
    26    10     5   ar
    27    28    26    1
    28    17    12    1
    29    19    22    1
    30    19    23    1
    31    16    18    1
@<TRIPOS>MOLECULE
*****
 28 31 0 0 0
SMALL
GASTEIGER

@<TRIPOS>ATOM
      1 C         140.0578  141.1195  168.9470 C.ar    1  UNL1        0.1366
      2 C         139.0851  139.9988  168.7285 C.ar    1  UNL1        0.0353
      3 C         138.7735  139.5370  167.3358 C.ar    1  UNL1        0.0631
      4 CL        137.8008  138.4162  167.1173 Cl      1  UNL1       -0.0821
      5 C         139.4345  140.1959  166.1616 C.ar    1  UNL1        0.0574
      6 C         139.3259  139.9579  164.6846 C.ar    1  UNL1        0.0850
      7 CL        138.4631  138.9272  164.0189 Cl      1  UNL1       -0.0799
      8 C         140.2314  140.9316  163.9903 C.ar    1  UNL1        0.1143
      9 N         140.8997  141.7714  165.0382 N.ar    1  UNL1       -0.3061
     10 C         140.4072  141.3167  166.3802 C.ar    1  UNL1        0.1460
     11 N         140.7188  141.7785  167.7729 N.ar    1  UNL1       -0.2236
     12 C         141.8871  142.8725  164.7881 C.3     1  UNL1        0.1031
     13 C         141.4500  144.1287  164.0946 C.3     1  UNL1        0.0255
     14 C         142.4374  145.2297  163.8445 C.3     1  UNL1        0.0191
     15 C         143.8620  145.0746  164.2879 C.3     1  UNL1        0.0687
     16 N         144.2991  143.8184  164.9814 N.3     1  UNL1       -0.2959
     17 C         143.3116  142.7174  165.2315 C.3     1  UNL1        0.0914
     18 H         144.6663  144.0970  165.8914 H       1  UNL1        0.1233
     19 N         140.5269  140.5791  171.4446 N.am    1  UNL1       -0.3241
     20 C         140.3694  141.5813  170.3398 C.2     1  UNL1        0.2606
     21 O         140.5235  143.0453  170.6276 O.2     1  UNL1       -0.2687
     22 H         140.7314  140.8822  172.3587 H       1  UNL1        0.1453
     23 H         140.4257  139.6182  171.2557 H       1  UNL1        0.1453
     24 C         140.4331  141.0454  162.5082 C.1     1  UNL1       -0.0460
     25 C         140.6349  141.1592  161.0263 C.1     1  UNL1       -0.0860
     26 C         140.8366  141.2730  159.5443 C.3     1  UNL1        0.0646
     27 C         141.0708  140.6255  158.2117 C.3     1  UNL1        0.0140
     28 C         140.9519  142.1175  158.3100 C.3     1  UNL1        0.0140
@<TRIPOS>BOND
     1    19    20   am
     2    20    21    2
     3    20     1    1
     4     1     2   ar
     5     2     3   ar
     6     3     4    1
     7     3     5   ar
     8     5     6   ar
     9     6     7    1
    10     6     8   ar
    11     8    24    1
    12    24    25    3
    13    25    26    1
    14    26    27    1
    15    27    28    1
    16     8     9   ar
    17     9    12    1
    18    12    13    1
    19    13    14    1
    20    14    15    1
    21    15    16    1
    22    16    17    1
    23     9    10   ar
    24    10    11   ar
    25    11     1   ar
    26    10     5   ar
    27    28    26    1
    28    17    12    1
    29    19    22    1
    30    19    23    1
    31    16    18    1
@<TRIPOS>MOLECULE
*****
 28 31 0 0 0
SMALL
GASTEIGER

@<TRIPOS>ATOM
      1 C         140.2067  140.7312  168.7870 C.ar    1  UNL1        0.1366
      2 C         141.3203  139.7439  168.9744 C.ar    1  UNL1        0.0353
      3 C         142.2655  139.4563  167.8458 C.ar    1  UNL1        0.0631
      4 CL        143.3792  138.4690  168.0332 Cl      1  UNL1       -0.0821
      5 C         142.0971  140.1559  166.5297 C.ar    1  UNL1        0.0574
      6 C         142.8677  140.0771  165.2452 C.ar    1  UNL1        0.0850
      7 CL        144.0654  139.2117  164.9873 Cl      1  UNL1       -0.0799
      8 C         142.2304  141.0157  164.2639 C.ar    1  UNL1        0.1143
      9 N         141.0658  141.6746  164.9419 N.ar    1  UNL1       -0.3061
     10 C         140.9835  141.1432  166.3423 C.ar    1  UNL1        0.1460
     11 N         140.0383  141.4308  167.4709 N.ar    1  UNL1       -0.2236
     12 C         140.1453  142.6870  164.3275 C.3     1  UNL1        0.1031
     13 C         138.9893  142.2358  163.4848 C.3     1  UNL1        0.0255
     14 C         138.0688  143.2483  162.8704 C.3     1  UNL1        0.0191
     15 C         138.3042  144.7120  163.0988 C.3     1  UNL1        0.0687
     16 N         139.4602  145.1632  163.9415 N.3     1  UNL1       -0.2959
     17 C         140.3807  144.1507  164.5558 C.3     1  UNL1        0.0914
     18 H         139.0694  145.7098  164.7089 H       1  UNL1        0.1233
     19 N         138.2311  140.0020  170.3086 N.am    1  UNL1       -0.3241
     20 C         139.2615  141.0188  169.9157 C.2     1  UNL1        0.2606
     21 O         139.3468  142.3231  170.6514 O.2     1  UNL1       -0.2687
     22 H         137.6108  140.1908  171.0494 H       1  UNL1        0.1453
     23 H         138.1752  139.1459  169.8257 H       1  UNL1        0.1453
     24 C         142.6789  141.2536  162.8524 C.1     1  UNL1       -0.0460
     25 C         143.1274  141.4915  161.4409 C.1     1  UNL1       -0.0860
     26 C         143.5758  141.7294  160.0295 C.3     1  UNL1        0.0646
     27 C         143.9950  141.1949  158.6921 C.3     1  UNL1        0.0140
     28 C         143.9335  142.6759  158.9222 C.3     1  UNL1        0.0140
@<TRIPOS>BOND
     1    19    20   am
     2    20    21    2
     3    20     1    1
     4     1     2   ar
     5     2     3   ar
     6     3     4    1
     7     3     5   ar
     8     5     6   ar
     9     6     7    1
    10     6     8   ar
    11     8    24    1
    12    24    25    3
    13    25    26    1
    14    26    27    1
    15    27    28    1
    16     8     9   ar
    17     9    12    1
    18    12    13    1
    19    13    14    1
    20    14    15    1
    21    15    16    1
    22    16    17    1
    23     9    10   ar
    24    10    11   ar
    25    11     1   ar
    26    10     5   ar
    27    28    26    1
    28    17    12    1
    29    19    22    1
    30    19    23    1
    31    16    18    1
@<TRIPOS>MOLECULE
*****
 28 31 0 0 0
SMALL
GASTEIGER

@<TRIPOS>ATOM
      1 C         142.3622  140.2777  168.8660 C.ar    1  UNL1        0.1366
      2 C         141.5801  141.4459  169.3888 C.ar    1  UNL1        0.0353
      3 C         140.9132  142.3902  168.4330 C.ar    1  UNL1        0.0631
      4 CL        140.1310  143.5585  168.9559 Cl      1  UNL1       -0.0821
      5 C         141.0283  142.1661  166.9543 C.ar    1  UNL1        0.0574
      6 C         140.4836  142.9225  165.7791 C.ar    1  UNL1        0.0850
      7 CL        139.6413  144.1621  165.8421 Cl      1  UNL1       -0.0799
      8 C         140.9290  142.2217  164.5299 C.ar    1  UNL1        0.1143
      9 N         141.7490  141.0321  164.9331 N.ar    1  UNL1       -0.3061
     10 C         141.8103  140.9978  166.4315 C.ar    1  UNL1        0.1460
     11 N         142.4773  140.0536  167.3873 N.ar    1  UNL1       -0.2236
     12 C         142.3944  140.0495  164.0015 C.3     1  UNL1        0.1031
     13 C         141.5751  138.9599  163.3756 C.3     1  UNL1        0.0255
     14 C         142.2206  137.9773  162.4440 C.3     1  UNL1        0.0191
     15 C         143.6852  138.0842  162.1384 C.3     1  UNL1        0.0687
     16 N         144.5045  139.1738  162.7643 N.3     1  UNL1       -0.2959
     17 C         143.8590  140.1564  163.6958 C.3     1  UNL1        0.0914
     18 H         144.9085  139.7146  161.9996 H       1  UNL1        0.1233
     19 N         143.4464  139.8123  171.1807 N.am    1  UNL1       -0.3241
     20 C         143.0292  139.3335  169.8218 C.2     1  UNL1        0.2606
     21 O         143.2790  137.9104  169.4188 O.2     1  UNL1       -0.2687
     22 H         143.8842  139.1926  171.8080 H       1  UNL1        0.1453
     23 H         143.2825  140.7463  171.4453 H       1  UNL1        0.1453
     24 C         140.6104  142.6375  163.1243 C.1     1  UNL1       -0.0460
     25 C         140.2917  143.0532  161.7188 C.1     1  UNL1       -0.0860
     26 C         139.9730  143.4689  160.3133 C.3     1  UNL1        0.0646
     27 C         139.2978  143.2012  159.0008 C.3     1  UNL1        0.0140
     28 C         140.0963  144.4567  159.1912 C.3     1  UNL1        0.0140
@<TRIPOS>BOND
     1    19    20   am
     2    20    21    2
     3    20     1    1
     4     1     2   ar
     5     2     3   ar
     6     3     4    1
     7     3     5   ar
     8     5     6   ar
     9     6     7    1
    10     6     8   ar
    11     8    24    1
    12    24    25    3
    13    25    26    1
    14    26    27    1
    15    27    28    1
    16     8     9   ar
    17     9    12    1
    18    12    13    1
    19    13    14    1
    20    14    15    1
    21    15    16    1
    22    16    17    1
    23     9    10   ar
    24    10    11   ar
    25    11     1   ar
    26    10     5   ar
    27    28    26    1
    28    17    12    1
    29    19    22    1
    30    19    23    1
    31    16    18    1
