@<TRIPOS>MOLECULE
*****
 31 35 0 0 0
SMALL
GASTEIGER

@<TRIPOS>ATOM
      1 C         138.8185  137.5869  163.6805 C.3     1  UNL1        0.0730
      2 N         139.2774  138.3253  164.9029 N.3     1  UNL1       -0.2720
      3 C         138.2466  138.5100  165.9769 C.3     1  UNL1        0.0768
      4 C         138.3903  139.1964  167.3029 C.3     1  UNL1        0.0434
      5 C         139.6001  139.8676  167.8823 C.ar    1  UNL1       -0.0216
      6 C         139.3150  140.4318  169.2427 C.ar    1  UNL1        0.0357
      7 C         140.3949  141.1465  169.9996 C.ar    1  UNL1        0.1762
      8 O         140.4095  141.8023  171.3485 O.2     1  UNL1       -0.3537
      9 N         141.7836  142.3581  171.5789 N.ar    1  UNL1       -0.0814
     10 C         142.6181  142.0459  170.3723 C.ar    1  UNL1        0.1009
     11 C         144.0582  142.4172  170.1762 C.3     1  UNL1        0.0557
     12 C         141.7599  141.2971  169.3963 C.ar    1  UNL1        0.0535
     13 C         142.0450  140.7329  168.0359 C.ar    1  UNL1       -0.0001
     14 C         140.9651  140.0181  167.2790 C.ar    1  UNL1       -0.0245
     15 C         141.4574  139.5347  165.9471 C.3     1  UNL1        0.0433
     16 C         140.7063  138.7813  164.8897 C.3     1  UNL1        0.0768
     17 C         138.9375  138.2265  162.3290 C.3     1  UNL1        0.0294
     18 C         137.8003  139.0359  161.7796 C.3     1  UNL1        0.0666
     19 S         137.8742  140.5340  161.7857 S.3     1  UNL1       -0.0756
     20 C         140.5895  142.3246  163.9039 C.ar    1  UNL1        0.2029
     21 N         139.4318  142.3235  164.8577 N.ar    1  UNL1       -0.1250
     22 N         138.2738  141.6527  164.1803 N.ar    1  UNL1       -0.1220
     23 C         138.7158  141.2391  162.8079 C.ar    1  UNL1        0.1933
     24 N         140.1469  141.6544  162.6371 N.ar    1  UNL1       -0.2860
     25 C         140.9880  141.4376  161.4140 C.3     1  UNL1        0.1341
     26 C         141.4984  145.4215  163.4211 C.3     1  UNL1        0.0556
     27 C         142.3685  144.3192  163.9483 C.ar    1  UNL1        0.1001
     28 N         143.8091  144.4468  164.3461 N.ar    1  UNL1       -0.2085
     29 C         144.2817  143.1022  164.8138 C.ar    1  UNL1        0.2849
     30 O         143.1332  142.1436  164.7051 O.2     1  UNL1       -0.4283
     31 C         141.9507  142.8957  164.1702 C.ar    1  UNL1        0.1964
@<TRIPOS>BOND
     1    26    27    1
     2    27    28   ar
     3    28    29   ar
     4    29    30   ar
     5    30    31   ar
     6    31    20    1
     7    20    21   ar
     8    21    22   ar
     9    22    23   ar
    10    23    19    1
    11    19    18    1
    12    18    17    1
    13    17     1    1
    14     1     2    1
    15     2     3    1
    16     3     4    1
    17     4     5    1
    18     5     6   ar
    19     6     7   ar
    20     7     8   ar
    21     8     9   ar
    22     9    10   ar
    23    10    11    1
    24    10    12   ar
    25    12    13   ar
    26    13    14   ar
    27    14    15    1
    28    15    16    1
    29    23    24   ar
    30    24    25    1
    31    31    27   ar
    32    24    20   ar
    33    16     2    1
    34    14     5   ar
    35    12     7   ar
@<TRIPOS>MOLECULE
*****
 31 35 0 0 0
SMALL
GASTEIGER

@<TRIPOS>ATOM
      1 C         140.7202  145.8334  162.4137 C.3     1  UNL1        0.0730
      2 N         140.9169  144.8521  163.5309 N.3     1  UNL1       -0.2720
      3 C         142.2779  144.2270  163.6160 C.3     1  UNL1        0.0768
      4 C         142.7847  143.2210  164.6066 C.3     1  UNL1        0.0434
      5 C         142.0558  142.5917  165.7566 C.ar    1  UNL1       -0.0216
      6 C         142.9341  141.6312  166.5024 C.ar    1  UNL1        0.0357
      7 C         142.3966  140.8919  167.6917 C.ar    1  UNL1        0.1762
      8 O         143.0212  139.8903  168.6172 O.2     1  UNL1       -0.3537
      9 N         141.9915  139.4923  169.6328 N.ar    1  UNL1       -0.0814
     10 C         140.7305  140.2480  169.3349 C.ar    1  UNL1        0.1009
     11 C         139.4448  140.1551  170.1020 C.3     1  UNL1        0.0557
     12 C         140.9809  141.1130  168.1353 C.ar    1  UNL1        0.0535
     13 C         140.1026  142.0735  167.3895 C.ar    1  UNL1       -0.0001
     14 C         140.6401  142.8128  166.2002 C.ar    1  UNL1       -0.0245
     15 C         139.6035  143.7179  165.6032 C.3     1  UNL1        0.0433
     16 C         139.7268  144.6255  164.4153 C.3     1  UNL1        0.0768
     17 C         140.1406  145.3768  161.1078 C.3     1  UNL1        0.0294
     18 C         140.8119  144.2834  160.3306 C.3     1  UNL1        0.0666
     19 S         140.0678  143.0188  160.0194 S.3     1  UNL1       -0.0756
     20 C         138.4523  141.0028  162.9162 C.ar    1  UNL1        0.2029
     21 N         137.2800  141.8031  162.4310 N.ar    1  UNL1       -0.1250
     22 N         137.7425  142.6557  161.2868 N.ar    1  UNL1       -0.1220
     23 C         139.2006  142.3823  161.0649 C.ar    1  UNL1        0.1933
     24 N         139.6392  141.3609  162.0719 N.ar    1  UNL1       -0.2860
     25 C         141.0221  140.7965  162.2103 C.3     1  UNL1        0.1341
     26 C         139.0547  137.8042  162.6804 C.3     1  UNL1        0.0556
     27 C         138.7167  138.5473  163.9388 C.ar    1  UNL1        0.1001
     28 N         138.5962  137.9507  165.3097 N.ar    1  UNL1       -0.2085
     29 C         138.2448  139.0522  166.2653 C.ar    1  UNL1        0.2849
     30 O         138.1482  140.3296  165.4851 O.2     1  UNL1       -0.4283
     31 C         138.4398  140.0176  164.0471 C.ar    1  UNL1        0.1964
@<TRIPOS>BOND
     1    26    27    1
     2    27    28   ar
     3    28    29   ar
     4    29    30   ar
     5    30    31   ar
     6    31    20    1
     7    20    21   ar
     8    21    22   ar
     9    22    23   ar
    10    23    19    1
    11    19    18    1
    12    18    17    1
    13    17     1    1
    14     1     2    1
    15     2     3    1
    16     3     4    1
    17     4     5    1
    18     5     6   ar
    19     6     7   ar
    20     7     8   ar
    21     8     9   ar
    22     9    10   ar
    23    10    11    1
    24    10    12   ar
    25    12    13   ar
    26    13    14   ar
    27    14    15    1
    28    15    16    1
    29    23    24   ar
    30    24    25    1
    31    31    27   ar
    32    24    20   ar
    33    16     2    1
    34    14     5   ar
    35    12     7   ar
@<TRIPOS>MOLECULE
*****
 31 35 0 0 0
SMALL
GASTEIGER

@<TRIPOS>ATOM
      1 C         139.7754  137.8891  162.8211 C.3     1  UNL1        0.0730
      2 N         140.2060  138.7465  163.9740 N.3     1  UNL1       -0.2720
      3 C         141.6858  138.9432  164.1218 C.3     1  UNL1        0.0768
      4 C         142.4250  139.7358  165.1589 C.3     1  UNL1        0.0434
      5 C         141.8670  140.5275  166.3041 C.ar    1  UNL1       -0.0216
      6 C         142.9575  141.1728  167.1070 C.ar    1  UNL1        0.0357
      7 C         142.6130  142.0127  168.3011 C.ar    1  UNL1        0.1762
      8 O         143.4659  142.7680  169.2768 O.2     1  UNL1       -0.3537
      9 N         142.5582  143.4294  170.2710 N.ar    1  UNL1       -0.0814
     10 C         141.1442  143.0829  169.9098 C.ar    1  UNL1        0.1009
     11 C         139.9125  143.5331  170.6382 C.3     1  UNL1        0.0557
     12 C         141.1780  142.2074  168.6924 C.ar    1  UNL1        0.0535
     13 C         140.0876  141.5621  167.8895 C.ar    1  UNL1       -0.0001
     14 C         140.4321  140.7222  166.6954 C.ar    1  UNL1       -0.0245
     15 C         139.2007  140.1732  166.0379 C.3     1  UNL1        0.0433
     16 C         139.1002  139.2939  164.8267 C.3     1  UNL1        0.0768
     17 C         138.3595  137.9488  162.3297 C.3     1  UNL1        0.0294
     18 C         138.0660  138.4507  160.9469 C.3     1  UNL1        0.0666
     19 S         137.5908  139.8591  160.7454 S.3     1  UNL1       -0.0756
     20 C         139.3824  142.5920  162.8398 C.ar    1  UNL1        0.2029
     21 N         138.0108  142.6143  163.4468 N.ar    1  UNL1       -0.1250
     22 N         137.1728  141.5932  162.7361 N.ar    1  UNL1       -0.1220
     23 C         138.0264  140.9399  161.6898 C.ar    1  UNL1        0.1933
     24 N         139.3919  141.5572  161.7540 N.ar    1  UNL1       -0.2860
     25 C         140.5617  141.2021  160.8847 C.3     1  UNL1        0.1341
     26 C         139.7257  145.7735  162.1993 C.3     1  UNL1        0.0556
     27 C         140.6987  144.9157  162.9527 C.ar    1  UNL1        0.1001
     28 N         142.0003  145.3698  163.5439 N.ar    1  UNL1       -0.2085
     29 C         142.6469  144.1880  164.2038 C.ar    1  UNL1        0.2849
     30 O         141.7450  143.0036  164.0203 O.2     1  UNL1       -0.4283
     31 C         140.5408  143.4533  163.2471 C.ar    1  UNL1        0.1964
@<TRIPOS>BOND
     1    26    27    1
     2    27    28   ar
     3    28    29   ar
     4    29    30   ar
     5    30    31   ar
     6    31    20    1
     7    20    21   ar
     8    21    22   ar
     9    22    23   ar
    10    23    19    1
    11    19    18    1
    12    18    17    1
    13    17     1    1
    14     1     2    1
    15     2     3    1
    16     3     4    1
    17     4     5    1
    18     5     6   ar
    19     6     7   ar
    20     7     8   ar
    21     8     9   ar
    22     9    10   ar
    23    10    11    1
    24    10    12   ar
    25    12    13   ar
    26    13    14   ar
    27    14    15    1
    28    15    16    1
    29    23    24   ar
    30    24    25    1
    31    31    27   ar
    32    24    20   ar
    33    16     2    1
    34    14     5   ar
    35    12     7   ar
@<TRIPOS>MOLECULE
*****
 31 35 0 0 0
SMALL
GASTEIGER

@<TRIPOS>ATOM
      1 C         139.1707  137.6129  163.3716 C.3     1  UNL1        0.0730
      2 N         139.5526  138.3364  164.6289 N.3     1  UNL1       -0.2720
      3 C         138.4735  138.4566  165.6639 C.3     1  UNL1        0.0768
      4 C         138.5383  139.1142  167.0106 C.3     1  UNL1        0.0434
      5 C         139.6982  139.8138  167.6548 C.ar    1  UNL1       -0.0216
      6 C         139.3381  140.3329  169.0153 C.ar    1  UNL1        0.0357
      7 C         140.3596  141.0669  169.8325 C.ar    1  UNL1        0.1762
      8 O         140.2958  141.6886  171.1961 O.2     1  UNL1       -0.3537
      9 N         141.6380  142.2877  171.4956 N.ar    1  UNL1       -0.0814
     10 C         142.5312  142.0363  170.3171 C.ar    1  UNL1        0.1009
     11 C         143.9632  142.4643  170.1889 C.3     1  UNL1        0.0557
     12 C         141.7411  141.2819  169.2893 C.ar    1  UNL1        0.0535
     13 C         142.1012  140.7628  167.9288 C.ar    1  UNL1       -0.0001
     14 C         141.0798  140.0287  167.1116 C.ar    1  UNL1       -0.0245
     15 C         141.6426  139.5971  165.7899 C.3     1  UNL1        0.0433
     16 C         140.9629  138.8439  164.6850 C.3     1  UNL1        0.0768
     17 C         138.2557  138.2663  162.3787 C.3     1  UNL1        0.0294
     18 C         138.7095  138.4738  160.9641 C.3     1  UNL1        0.0666
     19 S         139.2615  139.8028  160.5409 S.3     1  UNL1       -0.0756
     20 C         142.4396  141.3126  162.1797 C.ar    1  UNL1        0.2029
     21 N         143.0469  140.4124  161.1448 N.ar    1  UNL1       -0.1250
     22 N         141.9303  139.7373  160.4050 N.ar    1  UNL1       -0.1220
     23 C         140.6329  140.2202  160.9826 C.ar    1  UNL1        0.1933
     24 N         140.9477  141.1938  162.0794 N.ar    1  UNL1       -0.2860
     25 C         139.9464  141.9209  162.9272 C.3     1  UNL1        0.1341
     26 C         144.8695  140.3470  164.1324 C.3     1  UNL1        0.0556
     27 C         144.3091  141.7355  164.0429 C.ar    1  UNL1        0.1001
     28 N         144.7672  142.9239  164.8351 N.ar    1  UNL1       -0.2085
     29 C         143.9334  144.1023  164.4272 C.ar    1  UNL1        0.2849
     30 O         142.9600  143.6421  163.3829 O.2     1  UNL1       -0.4283
     31 C         143.1921  142.1793  163.1453 C.ar    1  UNL1        0.1964
@<TRIPOS>BOND
     1    26    27    1
     2    27    28   ar
     3    28    29   ar
     4    29    30   ar
     5    30    31   ar
     6    31    20    1
     7    20    21   ar
     8    21    22   ar
     9    22    23   ar
    10    23    19    1
    11    19    18    1
    12    18    17    1
    13    17     1    1
    14     1     2    1
    15     2     3    1
    16     3     4    1
    17     4     5    1
    18     5     6   ar
    19     6     7   ar
    20     7     8   ar
    21     8     9   ar
    22     9    10   ar
    23    10    11    1
    24    10    12   ar
    25    12    13   ar
    26    13    14   ar
    27    14    15    1
    28    15    16    1
    29    23    24   ar
    30    24    25    1
    31    31    27   ar
    32    24    20   ar
    33    16     2    1
    34    14     5   ar
    35    12     7   ar
@<TRIPOS>MOLECULE
*****
 31 35 0 0 0
SMALL
GASTEIGER

@<TRIPOS>ATOM
      1 C         144.0897  138.9200  163.1722 C.3     1  UNL1        0.0730
      2 N         143.5631  139.4297  164.4810 N.3     1  UNL1       -0.2720
      3 C         143.6456  138.4722  165.6329 C.3     1  UNL1        0.0768
      4 C         143.2090  138.6781  167.0532 C.3     1  UNL1        0.0434
      5 C         142.5822  139.8920  167.6723 C.ar    1  UNL1       -0.0216
      6 C         142.2988  139.6793  169.1299 C.ar    1  UNL1        0.0357
      7 C         141.6702  140.7747  169.9393 C.ar    1  UNL1        0.1762
      8 O         141.2761  140.8552  171.3843 O.2     1  UNL1       -0.3537
      9 N         140.6874  142.2129  171.6293 N.ar    1  UNL1       -0.0814
     10 C         140.7176  142.9715  170.3356 C.ar    1  UNL1        0.1009
     11 C         140.2267  144.3730  170.1237 C.3     1  UNL1        0.0557
     12 C         141.3250  142.0827  169.2912 C.ar    1  UNL1        0.0535
     13 C         141.6085  142.2953  167.8336 C.ar    1  UNL1       -0.0001
     14 C         142.2371  141.2000  167.0242 C.ar    1  UNL1       -0.0245
     15 C         142.4335  141.6171  165.5968 C.3     1  UNL1        0.0433
     16 C         143.0237  140.8291  164.4650 C.3     1  UNL1        0.0768
     17 C         144.2882  139.8650  162.0245 C.3     1  UNL1        0.0294
     18 C         143.9282  139.4397  160.6318 C.3     1  UNL1        0.0666
     19 S         143.3579  140.4365  159.6670 S.3     1  UNL1       -0.0756
     20 C         141.2919  143.2920  161.2930 C.ar    1  UNL1        0.2029
     21 N         142.3849  144.0705  160.6225 N.ar    1  UNL1       -0.1250
     22 N         143.2918  143.0956  159.9319 N.ar    1  UNL1       -0.1220
     23 C         142.7593  141.7146  160.1754 C.ar    1  UNL1        0.1933
     24 N         141.5234  141.8360  161.0166 N.ar    1  UNL1       -0.2860
     25 C         140.6688  140.7007  161.4971 C.3     1  UNL1        0.1341
     26 C         141.5839  144.9401  164.0945 C.3     1  UNL1        0.0556
     27 C         140.2996  144.6259  163.3860 C.ar    1  UNL1        0.1001
     28 N         138.9240  145.0141  163.8410 N.ar    1  UNL1       -0.2085
     29 C         137.9396  144.4965  162.8344 C.ar    1  UNL1        0.2849
     30 O         138.7068  143.7884  161.7574 O.2     1  UNL1       -0.4283
     31 C         140.1654  143.8684  162.0983 C.ar    1  UNL1        0.1964
@<TRIPOS>BOND
     1    26    27    1
     2    27    28   ar
     3    28    29   ar
     4    29    30   ar
     5    30    31   ar
     6    31    20    1
     7    20    21   ar
     8    21    22   ar
     9    22    23   ar
    10    23    19    1
    11    19    18    1
    12    18    17    1
    13    17     1    1
    14     1     2    1
    15     2     3    1
    16     3     4    1
    17     4     5    1
    18     5     6   ar
    19     6     7   ar
    20     7     8   ar
    21     8     9   ar
    22     9    10   ar
    23    10    11    1
    24    10    12   ar
    25    12    13   ar
    26    13    14   ar
    27    14    15    1
    28    15    16    1
    29    23    24   ar
    30    24    25    1
    31    31    27   ar
    32    24    20   ar
    33    16     2    1
    34    14     5   ar
    35    12     7   ar
@<TRIPOS>MOLECULE
*****
 31 35 0 0 0
SMALL
GASTEIGER

@<TRIPOS>ATOM
      1 C         141.3003  141.3542  160.9925 C.3     1  UNL1        0.0730
      2 N         141.6165  141.1600  162.4458 N.3     1  UNL1       -0.2720
      3 C         141.7117  139.7355  162.9063 C.3     1  UNL1        0.0768
      4 C         142.0097  139.2151  164.2813 C.3     1  UNL1        0.0434
      5 C         142.2860  139.9905  165.5352 C.ar    1  UNL1       -0.0216
      6 C         142.5365  139.0785  166.6995 C.ar    1  UNL1        0.0357
      7 C         142.8337  139.6538  168.0525 C.ar    1  UNL1        0.1762
      8 O         143.1201  139.0095  169.3764 O.2     1  UNL1       -0.3537
      9 N         143.3437  140.0985  170.3833 N.ar    1  UNL1       -0.0814
     10 C         143.1956  141.4160  169.6818 C.ar    1  UNL1        0.1009
     11 C         143.3377  142.7705  170.3104 C.3     1  UNL1        0.0557
     12 C         142.8804  141.1412  168.2413 C.ar    1  UNL1        0.0535
     13 C         142.6298  142.0532  167.0770 C.ar    1  UNL1       -0.0001
     14 C         142.3326  141.4778  165.7240 C.ar    1  UNL1       -0.0245
     15 C         142.1145  142.5571  164.7054 C.3     1  UNL1        0.0433
     16 C         141.7958  142.4156  163.2465 C.3     1  UNL1        0.0768
     17 C         140.3224  140.4447  160.3096 C.3     1  UNL1        0.0294
     18 C         138.8834  140.8494  160.1838 C.3     1  UNL1        0.0666
     19 S         137.8227  140.0872  160.9212 S.3     1  UNL1       -0.0756
     20 C         138.5008  139.2327  164.6463 C.ar    1  UNL1        0.2029
     21 N         138.6850  137.8903  164.0027 N.ar    1  UNL1       -0.1250
     22 N         138.4534  138.0470  162.5291 N.ar    1  UNL1       -0.1220
     23 C         138.1261  139.4863  162.2617 C.ar    1  UNL1        0.1933
     24 N         138.1554  140.2190  163.5702 N.ar    1  UNL1       -0.2860
     25 C         137.8865  141.6814  163.7680 C.3     1  UNL1        0.1341
     26 C         137.2122  137.4998  167.0929 C.3     1  UNL1        0.0556
     27 C         138.0457  138.7390  167.2336 C.ar    1  UNL1        0.1001
     28 N         138.4331  139.3993  168.5235 N.ar    1  UNL1       -0.2085
     29 C         139.2649  140.6039  168.1960 C.ar    1  UNL1        0.2849
     30 O         139.3915  140.6881  166.7038 O.2     1  UNL1       -0.4283
     31 C         138.6380  139.5356  166.1089 C.ar    1  UNL1        0.1964
@<TRIPOS>BOND
     1    26    27    1
     2    27    28   ar
     3    28    29   ar
     4    29    30   ar
     5    30    31   ar
     6    31    20    1
     7    20    21   ar
     8    21    22   ar
     9    22    23   ar
    10    23    19    1
    11    19    18    1
    12    18    17    1
    13    17     1    1
    14     1     2    1
    15     2     3    1
    16     3     4    1
    17     4     5    1
    18     5     6   ar
    19     6     7   ar
    20     7     8   ar
    21     8     9   ar
    22     9    10   ar
    23    10    11    1
    24    10    12   ar
    25    12    13   ar
    26    13    14   ar
    27    14    15    1
    28    15    16    1
    29    23    24   ar
    30    24    25    1
    31    31    27   ar
    32    24    20   ar
    33    16     2    1
    34    14     5   ar
    35    12     7   ar
@<TRIPOS>MOLECULE
*****
 31 35 0 0 0
SMALL
GASTEIGER

@<TRIPOS>ATOM
      1 C         144.5244  139.1041  163.3245 C.3     1  UNL1        0.0730
      2 N         143.8986  139.5702  164.6055 N.3     1  UNL1       -0.2720
      3 C         143.7571  138.5299  165.6769 C.3     1  UNL1        0.0768
      4 C         143.1790  138.6774  167.0532 C.3     1  UNL1        0.0434
      5 C         142.5999  139.9016  167.6980 C.ar    1  UNL1       -0.0216
      6 C         142.1301  139.6157  169.0936 C.ar    1  UNL1        0.0357
      7 C         141.5161  140.7088  169.9170 C.ar    1  UNL1        0.1762
      8 O         140.9655  140.7259  171.3122 O.2     1  UNL1       -0.3537
      9 N         140.4810  142.1156  171.6023 N.ar    1  UNL1       -0.0814
     10 C         140.7322  142.9573  170.3865 C.ar    1  UNL1        0.1009
     11 C         140.4017  144.4130  170.2382 C.3     1  UNL1        0.0557
     12 C         141.3719  142.0879  169.3449 C.ar    1  UNL1        0.0535
     13 C         141.8417  142.3738  167.9493 C.ar    1  UNL1       -0.0001
     14 C         142.4557  141.2807  167.1259 C.ar    1  UNL1       -0.0245
     15 C         142.8551  141.7762  165.7676 C.3     1  UNL1        0.0433
     16 C         143.4972  141.0149  164.6460 C.3     1  UNL1        0.0768
     17 C         144.1190  139.7271  162.0216 C.3     1  UNL1        0.0294
     18 C         143.3104  138.9399  161.0333 C.3     1  UNL1        0.0666
     19 S         141.8249  139.1328  160.9567 S.3     1  UNL1       -0.0756
     20 C         139.9101  141.3658  163.4892 C.ar    1  UNL1        0.2029
     21 N         140.0073  140.0785  164.2533 N.ar    1  UNL1       -0.1250
     22 N         140.7364  139.0855  163.3976 N.ar    1  UNL1       -0.1220
     23 C         141.0898  139.7589  162.1047 C.ar    1  UNL1        0.1933
     24 N         140.5792  141.1681  162.1613 N.ar    1  UNL1       -0.2860
     25 C         140.7139  142.1989  161.0799 C.3     1  UNL1        0.1341
     26 C         141.3914  144.2395  163.9334 C.3     1  UNL1        0.0556
     27 C         139.9392  143.9497  164.1730 C.ar    1  UNL1        0.1001
     28 N         138.9130  144.9298  164.6588 N.ar    1  UNL1       -0.2085
     29 C         137.5980  144.2147  164.7549 C.ar    1  UNL1        0.2849
     30 O         137.8114  142.7926  164.3285 O.2     1  UNL1       -0.4283
     31 C         139.2584  142.6287  163.9688 C.ar    1  UNL1        0.1964
@<TRIPOS>BOND
     1    26    27    1
     2    27    28   ar
     3    28    29   ar
     4    29    30   ar
     5    30    31   ar
     6    31    20    1
     7    20    21   ar
     8    21    22   ar
     9    22    23   ar
    10    23    19    1
    11    19    18    1
    12    18    17    1
    13    17     1    1
    14     1     2    1
    15     2     3    1
    16     3     4    1
    17     4     5    1
    18     5     6   ar
    19     6     7   ar
    20     7     8   ar
    21     8     9   ar
    22     9    10   ar
    23    10    11    1
    24    10    12   ar
    25    12    13   ar
    26    13    14   ar
    27    14    15    1
    28    15    16    1
    29    23    24   ar
    30    24    25    1
    31    31    27   ar
    32    24    20   ar
    33    16     2    1
    34    14     5   ar
    35    12     7   ar
@<TRIPOS>MOLECULE
*****
 31 35 0 0 0
SMALL
GASTEIGER

@<TRIPOS>ATOM
      1 C         145.2029  141.4298  162.5822 C.3     1  UNL1        0.0730
      2 N         144.4123  141.2899  163.8493 N.3     1  UNL1       -0.2720
      3 C         144.2898  139.8958  164.3893 C.3     1  UNL1        0.0768
      4 C         143.5735  139.4301  165.6223 C.3     1  UNL1        0.0434
      5 C         142.8028  140.2433  166.6195 C.ar    1  UNL1       -0.0216
      6 C         142.2405  139.3822  167.7114 C.ar    1  UNL1        0.0357
      7 C         141.4334  140.0009  168.8141 C.ar    1  UNL1        0.1762
      8 O         140.7571  139.4106  170.0158 O.2     1  UNL1       -0.3537
      9 N         140.0944  140.5256  170.7692 N.ar    1  UNL1       -0.0814
     10 C         140.3611  141.8050  170.0331 C.ar    1  UNL1        0.1009
     11 C         139.8839  143.1692  170.4348 C.3     1  UNL1        0.0557
     12 C         141.1886  141.4808  168.8248 C.ar    1  UNL1        0.0535
     13 C         141.7509  142.3419  167.7329 C.ar    1  UNL1       -0.0001
     14 C         142.5580  141.7232  166.6302 C.ar    1  UNL1       -0.0245
     15 C         143.0235  142.7553  165.6463 C.3     1  UNL1        0.0433
     16 C         143.8487  142.5624  164.4087 C.3     1  UNL1        0.0768
     17 C         144.9358  142.5777  161.6544 C.3     1  UNL1        0.0294
     18 C         144.4582  142.3166  160.2565 C.3     1  UNL1        0.0666
     19 S         143.0302  141.9280  160.0121 S.3     1  UNL1       -0.0756
     20 C         140.4814  142.4559  162.8914 C.ar    1  UNL1        0.2029
     21 N         140.6976  140.9732  162.9638 N.ar    1  UNL1       -0.1250
     22 N         141.6787  140.5951  161.8940 N.ar    1  UNL1       -0.1220
     23 C         142.0689  141.8440  161.1605 C.ar    1  UNL1        0.1933
     24 N         141.3289  142.9939  161.7769 N.ar    1  UNL1       -0.2860
     25 C         141.4204  144.4300  161.3532 C.3     1  UNL1        0.1341
     26 C         137.2711  142.0063  163.2678 C.3     1  UNL1        0.0556
     27 C         138.1010  143.0526  163.9509 C.ar    1  UNL1        0.1001
     28 N         137.6010  144.0759  164.9269 N.ar    1  UNL1       -0.2085
     29 C         138.7675  144.9150  165.3572 C.ar    1  UNL1        0.2849
     30 O         139.9885  144.4103  164.6470 O.2     1  UNL1       -0.4283
     31 C         139.5767  143.2592  163.7779 C.ar    1  UNL1        0.1964
@<TRIPOS>BOND
     1    26    27    1
     2    27    28   ar
     3    28    29   ar
     4    29    30   ar
     5    30    31   ar
     6    31    20    1
     7    20    21   ar
     8    21    22   ar
     9    22    23   ar
    10    23    19    1
    11    19    18    1
    12    18    17    1
    13    17     1    1
    14     1     2    1
    15     2     3    1
    16     3     4    1
    17     4     5    1
    18     5     6   ar
    19     6     7   ar
    20     7     8   ar
    21     8     9   ar
    22     9    10   ar
    23    10    11    1
    24    10    12   ar
    25    12    13   ar
    26    13    14   ar
    27    14    15    1
    28    15    16    1
    29    23    24   ar
    30    24    25    1
    31    31    27   ar
    32    24    20   ar
    33    16     2    1
    34    14     5   ar
    35    12     7   ar
@<TRIPOS>MOLECULE
*****
 31 35 0 0 0
SMALL
GASTEIGER

@<TRIPOS>ATOM
      1 C         145.6469  141.7460  163.2613 C.3     1  UNL1        0.0730
      2 N         144.6805  141.5693  164.3949 N.3     1  UNL1       -0.2720
      3 C         144.2244  140.1628  164.6479 C.3     1  UNL1        0.0768
      4 C         143.2731  139.6621  165.6941 C.3     1  UNL1        0.0434
      5 C         142.5431  140.4440  166.7454 C.ar    1  UNL1       -0.0216
      6 C         141.6857  139.5529  167.5946 C.ar    1  UNL1        0.0357
      7 C         140.8692  140.1377  168.7087 C.ar    1  UNL1        0.1762
      8 O         139.9375  139.5136  169.7049 O.2     1  UNL1       -0.3537
      9 N         139.4025  140.6037  170.5855 N.ar    1  UNL1       -0.0814
     10 C         140.0035  141.9015  170.1336 C.ar    1  UNL1        0.1009
     11 C         139.7436  143.2505  170.7359 C.3     1  UNL1        0.0557
     12 C         140.9099  141.6136  168.9738 C.ar    1  UNL1        0.0535
     13 C         141.7673  142.5047  168.1246 C.ar    1  UNL1       -0.0001
     14 C         142.5838  141.9199  167.0104 C.ar    1  UNL1       -0.0245
     15 C         143.3648  142.9783  166.2894 C.3     1  UNL1        0.0433
     16 C         144.2979  142.8222  165.1254 C.3     1  UNL1        0.0768
     17 C         145.1366  141.9724  161.8691 C.3     1  UNL1        0.0294
     18 C         144.4349  143.2532  161.5265 C.3     1  UNL1        0.0666
     19 S         142.9713  143.2420  161.1984 S.3     1  UNL1       -0.0756
     20 C         140.6079  140.8667  163.1574 C.ar    1  UNL1        0.2029
     21 N         140.4127  142.1519  163.9059 N.ar    1  UNL1       -0.1250
     22 N         141.2743  143.1981  163.2631 N.ar    1  UNL1       -0.1220
     23 C         142.0020  142.5595  162.1174 C.ar    1  UNL1        0.1933
     24 N         141.5901  141.1186  162.0521 N.ar    1  UNL1       -0.2860
     25 C         142.0753  140.1072  161.0562 C.3     1  UNL1        0.1341
     26 C         138.4043  139.3589  161.2811 C.3     1  UNL1        0.0556
     27 C         138.9255  138.8661  162.5985 C.ar    1  UNL1        0.1001
     28 N         138.5254  137.5938  163.2848 N.ar    1  UNL1       -0.2085
     29 C         139.2910  137.5005  164.5713 C.ar    1  UNL1        0.2849
     30 O         140.1643  138.7151  164.6802 O.2     1  UNL1       -0.4283
     31 C         139.9385  139.5592  163.4609 C.ar    1  UNL1        0.1964
@<TRIPOS>BOND
     1    26    27    1
     2    27    28   ar
     3    28    29   ar
     4    29    30   ar
     5    30    31   ar
     6    31    20    1
     7    20    21   ar
     8    21    22   ar
     9    22    23   ar
    10    23    19    1
    11    19    18    1
    12    18    17    1
    13    17     1    1
    14     1     2    1
    15     2     3    1
    16     3     4    1
    17     4     5    1
    18     5     6   ar
    19     6     7   ar
    20     7     8   ar
    21     8     9   ar
    22     9    10   ar
    23    10    11    1
    24    10    12   ar
    25    12    13   ar
    26    13    14   ar
    27    14    15    1
    28    15    16    1
    29    23    24   ar
    30    24    25    1
    31    31    27   ar
    32    24    20   ar
    33    16     2    1
    34    14     5   ar
    35    12     7   ar
