@<TRIPOS>MOLECULE
*****
 33 36 0 0 0
SMALL
GASTEIGER

@<TRIPOS>ATOM
      1 C         139.8284  139.6475  166.3960 C.ar    1  UNL1        0.1102
      2 C         141.0984  140.3821  166.7080 C.ar    1  UNL1        0.1543
      3 C         141.3552  140.8784  168.1001 C.ar    1  UNL1        0.0696
      4 C         142.6252  141.6131  168.4121 C.ar    1  UNL1        0.0092
      5 C         142.8819  142.1093  169.8041 C.ar    1  UNL1        0.0369
      6 C         141.8686  141.8710  170.8841 C.ar    1  UNL1        0.1367
      7 O         142.1254  142.3674  172.2762 O.3     1  UNL1       -0.5054
      8 C         140.5986  141.1364  170.5721 C.ar    1  UNL1        0.0743
      9 C         140.3419  140.6401  169.1801 C.ar    1  UNL1        0.1546
     10 O         139.0718  139.9055  168.8681 O.2     1  UNL1       -0.4208
     11 C         138.8151  139.4092  167.4761 C.ar    1  UNL1        0.3487
     12 O         137.5450  138.6745  167.1640 O.2     1  UNL1       -0.2444
     13 H         142.9187  142.8263  172.4711 H       1  UNL1        0.2922
     14 C         138.1245  141.2542  164.5212 C.3     1  UNL1        0.0311
     15 C         138.7196  139.9545  164.0665 C.ar    1  UNL1       -0.0193
     16 C         138.4629  139.4583  162.6745 C.ar    1  UNL1        0.0254
     17 C         139.0580  138.1586  162.2199 C.ar    1  UNL1        0.1398
     18 F         138.8012  137.6623  160.8279 F       1  UNL1       -0.2042
     19 C         139.9100  137.3553  163.1574 C.ar    1  UNL1        0.0296
     20 C         140.1668  137.8515  164.5494 C.ar    1  UNL1        0.0023
     21 C         139.5716  139.1512  165.0039 C.ar    1  UNL1        0.0054
     22 O         142.1117  140.6204  165.6280 O.3     1  UNL1       -0.4532
     23 C         141.8497  141.6484  164.5674 C.ar    1  UNL1        0.1453
     24 C         141.4077  143.0288  164.9538 C.ar    1  UNL1        0.0375
     25 C         141.1457  144.0567  163.8933 C.ar    1  UNL1        0.0031
     26 C         141.3258  143.7044  162.4465 C.ar    1  UNL1        0.0002
     27 C         141.7679  142.3240  162.0601 C.ar    1  UNL1        0.0031
     28 C         142.0298  141.2961  163.1206 C.ar    1  UNL1        0.0375
     29 C         141.0639  144.7323  161.3859 C.2     1  UNL1        0.0012
     30 C         141.4662  144.4643  159.9660 C.2     1  UNL1        0.0151
     31 C         141.2043  145.4922  158.9055 C.2     1  UNL1        0.0729
     32 O         142.3384  146.0244  158.0804 O.co2   1  UNL1       -0.5446
     33 O         139.8083  145.9880  158.6699 O.co2   1  UNL1       -0.5446
@<TRIPOS>UNITY_ATOM_ATTR
32 1
charge -1
@<TRIPOS>BOND
     1    14    15    1
     2    15    16   ar
     3    16    17   ar
     4    17    18    1
     5    17    19   ar
     6    19    20   ar
     7    20    21   ar
     8    21     1    1
     9     1     2   ar
    10     2    22    1
    11    22    23    1
    12    23    24   ar
    13    24    25   ar
    14    25    26   ar
    15    26    29    1
    16    29    30    2
    17    30    31    1
    18    31    32   ar
    19    31    33   ar
    20    26    27   ar
    21    27    28   ar
    22     2     3   ar
    23     3     4   ar
    24     4     5   ar
    25     5     6   ar
    26     6     7    1
    27     6     8   ar
    28     8     9   ar
    29     9    10   ar
    30    10    11   ar
    31    11    12    2
    32    21    15   ar
    33    11     1   ar
    34    28    23   ar
    35     9     3   ar
    36     7    13    1
@<TRIPOS>MOLECULE
*****
 33 36 0 0 0
SMALL
GASTEIGER

@<TRIPOS>ATOM
      1 C         141.2241  139.8780  165.7967 C.ar    1  UNL1        0.1102
      2 C         140.6078  141.0883  166.4332 C.ar    1  UNL1        0.1543
      3 C         141.1828  141.6430  167.7028 C.ar    1  UNL1        0.0696
      4 C         140.5665  142.8533  168.3393 C.ar    1  UNL1        0.0092
      5 C         141.1416  143.4079  169.6088 C.ar    1  UNL1        0.0369
      6 C         142.3329  142.7522  170.2418 C.ar    1  UNL1        0.1367
      7 O         142.9079  143.3069  171.5114 O.3     1  UNL1       -0.5054
      8 C         142.9492  141.5419  169.6053 C.ar    1  UNL1        0.0743
      9 C         142.3742  140.9873  168.3358 C.ar    1  UNL1        0.1546
     10 O         142.9905  139.7769  167.6993 O.2     1  UNL1       -0.4208
     11 C         142.4155  139.2222  166.4298 C.ar    1  UNL1        0.3487
     12 O         143.0318  138.0118  165.7932 O.2     1  UNL1       -0.2444
     13 H         142.5229  144.0630  171.9090 H       1  UNL1        0.2922
     14 C         142.3721  140.6942  163.1480 C.3     1  UNL1        0.0311
     15 C         141.2231  139.7314  163.2028 C.ar    1  UNL1       -0.0193
     16 C         140.6481  139.1768  161.9332 C.ar    1  UNL1        0.0254
     17 C         139.4992  138.2141  161.9881 C.ar    1  UNL1        0.1398
     18 F         138.9241  137.6594  160.7185 F       1  UNL1       -0.2042
     19 C         138.9252  137.8060  163.3125 C.ar    1  UNL1        0.0296
     20 C         139.5001  138.3606  164.5820 C.ar    1  UNL1        0.0023
     21 C         140.6491  139.3233  164.5272 C.ar    1  UNL1        0.0054
     22 O         139.4165  141.7441  165.8002 O.3     1  UNL1       -0.4532
     23 C         139.5949  142.6234  164.5981 C.ar    1  UNL1        0.1453
     24 C         138.7559  142.4006  163.3748 C.ar    1  UNL1        0.0375
     25 C         138.9343  143.2798  162.1727 C.ar    1  UNL1        0.0031
     26 C         139.9516  144.3818  162.1939 C.ar    1  UNL1        0.0002
     27 C         140.7906  144.6046  163.4172 C.ar    1  UNL1        0.0031
     28 C         140.6123  143.7254  164.6193 C.ar    1  UNL1        0.0375
     29 C         140.1301  145.2611  160.9917 C.2     1  UNL1        0.0012
     30 C         140.9599  144.7899  159.8344 C.2     1  UNL1        0.0151
     31 C         141.1384  145.6691  158.6323 C.2     1  UNL1        0.0729
     32 O         139.9378  146.2057  157.9107 O.co2   1  UNL1       -0.5446
     33 O         142.5174  146.0118  158.1518 O.co2   1  UNL1       -0.5446
@<TRIPOS>UNITY_ATOM_ATTR
32 1
charge -1
@<TRIPOS>BOND
     1    14    15    1
     2    15    16   ar
     3    16    17   ar
     4    17    18    1
     5    17    19   ar
     6    19    20   ar
     7    20    21   ar
     8    21     1    1
     9     1     2   ar
    10     2    22    1
    11    22    23    1
    12    23    24   ar
    13    24    25   ar
    14    25    26   ar
    15    26    29    1
    16    29    30    2
    17    30    31    1
    18    31    32   ar
    19    31    33   ar
    20    26    27   ar
    21    27    28   ar
    22     2     3   ar
    23     3     4   ar
    24     4     5   ar
    25     5     6   ar
    26     6     7    1
    27     6     8   ar
    28     8     9   ar
    29     9    10   ar
    30    10    11   ar
    31    11    12    2
    32    21    15   ar
    33    11     1   ar
    34    28    23   ar
    35     9     3   ar
    36     7    13    1
@<TRIPOS>MOLECULE
*****
 33 36 0 0 0
SMALL
GASTEIGER

@<TRIPOS>ATOM
      1 C         139.7230  140.8205  162.3939 C.ar    1  UNL1        0.1102
      2 C         141.1872  140.9912  162.1169 C.ar    1  UNL1        0.1543
      3 C         141.6415  141.9147  161.0257 C.ar    1  UNL1        0.0696
      4 C         143.1058  142.0854  160.7487 C.ar    1  UNL1        0.0092
      5 C         143.5600  143.0089  159.6576 C.ar    1  UNL1        0.0369
      6 C         142.5500  143.7618  158.8433 C.ar    1  UNL1        0.1367
      7 O         143.0043  144.6854  157.7521 O.3     1  UNL1       -0.5054
      8 C         141.0857  143.5911  159.1203 C.ar    1  UNL1        0.0743
      9 C         140.6315  142.6676  160.2115 C.ar    1  UNL1        0.1546
     10 O         139.1672  142.4969  160.4884 O.2     1  UNL1       -0.4208
     11 C         138.7129  141.5734  161.5796 C.ar    1  UNL1        0.3487
     12 O         137.2486  141.4027  161.8566 O.2     1  UNL1       -0.2444
     13 H         143.9190  144.7920  157.5791 H       1  UNL1        0.2922
     14 C         138.8775  141.9356  165.0475 C.3     1  UNL1        0.0311
     15 C         138.8459  140.4545  164.8119 C.ar    1  UNL1       -0.0193
     16 C         138.3917  139.5310  165.9031 C.ar    1  UNL1        0.0254
     17 C         138.3601  138.0500  165.6675 C.ar    1  UNL1        0.1398
     18 F         137.9058  137.1264  166.7587 F       1  UNL1       -0.2042
     19 C         138.7829  137.4925  164.3407 C.ar    1  UNL1        0.0296
     20 C         139.2371  138.4159  163.2495 C.ar    1  UNL1        0.0023
     21 C         139.2687  139.8969  163.4851 C.ar    1  UNL1        0.0054
     22 O         142.1973  140.2383  162.9312 O.3     1  UNL1       -0.4532
     23 C         142.4460  140.6226  164.3597 C.ar    1  UNL1        0.1453
     24 C         142.7498  142.0489  164.7106 C.ar    1  UNL1        0.0375
     25 C         142.9984  142.4332  166.1390 C.ar    1  UNL1        0.0031
     26 C         142.9433  141.3912  167.2165 C.ar    1  UNL1        0.0002
     27 C         142.6394  139.9648  166.8656 C.ar    1  UNL1        0.0031
     28 C         142.3908  139.5805  165.4372 C.ar    1  UNL1        0.0375
     29 C         143.1919  141.7754  168.6450 C.2     1  UNL1        0.0012
     30 C         142.1891  142.6129  169.3818 C.2     1  UNL1        0.0151
     31 C         142.4377  142.9972  170.8103 C.2     1  UNL1        0.0729
     32 O         141.6613  142.3365  171.9107 O.co2   1  UNL1       -0.5446
     33 O         143.4626  144.0422  171.1384 O.co2   1  UNL1       -0.5446
@<TRIPOS>UNITY_ATOM_ATTR
32 1
charge -1
@<TRIPOS>BOND
     1    14    15    1
     2    15    16   ar
     3    16    17   ar
     4    17    18    1
     5    17    19   ar
     6    19    20   ar
     7    20    21   ar
     8    21     1    1
     9     1     2   ar
    10     2    22    1
    11    22    23    1
    12    23    24   ar
    13    24    25   ar
    14    25    26   ar
    15    26    29    1
    16    29    30    2
    17    30    31    1
    18    31    32   ar
    19    31    33   ar
    20    26    27   ar
    21    27    28   ar
    22     2     3   ar
    23     3     4   ar
    24     4     5   ar
    25     5     6   ar
    26     6     7    1
    27     6     8   ar
    28     8     9   ar
    29     9    10   ar
    30    10    11   ar
    31    11    12    2
    32    21    15   ar
    33    11     1   ar
    34    28    23   ar
    35     9     3   ar
    36     7    13    1
@<TRIPOS>MOLECULE
*****
 33 36 0 0 0
SMALL
GASTEIGER

@<TRIPOS>ATOM
      1 C         139.1629  140.2812  166.2292 C.ar    1  UNL1        0.1102
      2 C         140.2375  141.2843  166.5275 C.ar    1  UNL1        0.1543
      3 C         140.7189  141.4714  167.9359 C.ar    1  UNL1        0.0696
      4 C         141.7934  142.4745  168.2342 C.ar    1  UNL1        0.0092
      5 C         142.2747  142.6615  169.6425 C.ar    1  UNL1        0.0369
      6 C         141.6815  141.8453  170.7525 C.ar    1  UNL1        0.1367
      7 O         142.1629  142.0323  172.1608 O.3     1  UNL1       -0.5054
      8 C         140.6070  140.8422  170.4541 C.ar    1  UNL1        0.0743
      9 C         140.1257  140.6552  169.0458 C.ar    1  UNL1        0.1546
     10 O         139.0511  139.6520  168.7474 O.2     1  UNL1       -0.4208
     11 C         138.5698  139.4650  167.3392 C.ar    1  UNL1        0.3487
     12 O         137.4952  138.4618  167.0408 O.2     1  UNL1       -0.2444
     13 H         142.8341  142.6590  172.3472 H       1  UNL1        0.2922
     14 C         139.9610  137.8371  164.6834 C.3     1  UNL1        0.0311
     15 C         139.0806  138.8721  164.0479 C.ar    1  UNL1       -0.0193
     16 C         138.5993  138.6851  162.6397 C.ar    1  UNL1        0.0254
     17 C         137.7189  139.7200  162.0043 C.ar    1  UNL1        0.1398
     18 F         137.2375  139.5330  160.5960 F       1  UNL1       -0.2042
     19 C         137.3199  140.9421  162.7772 C.ar    1  UNL1        0.0296
     20 C         137.8012  141.1291  164.1855 C.ar    1  UNL1        0.0023
     21 C         138.6816  140.0941  164.8209 C.ar    1  UNL1        0.0054
     22 O         140.8307  142.1005  165.4176 O.3     1  UNL1       -0.4532
     23 C         141.4442  141.4187  164.2306 C.ar    1  UNL1        0.1453
     24 C         142.4847  140.3570  164.4305 C.ar    1  UNL1        0.0375
     25 C         143.0982  139.6752  163.2436 C.ar    1  UNL1        0.0031
     26 C         142.6712  140.0552  161.8568 C.ar    1  UNL1        0.0002
     27 C         141.6307  141.1170  161.6569 C.ar    1  UNL1        0.0031
     28 C         141.0171  141.7987  162.8438 C.ar    1  UNL1        0.0375
     29 C         143.2847  139.3735  160.6698 C.2     1  UNL1        0.0012
     30 C         142.7547  139.6437  159.2929 C.2     1  UNL1        0.0151
     31 C         143.3682  138.9620  158.1059 C.2     1  UNL1        0.0729
     32 O         144.3140  139.7126  157.2158 O.co2   1  UNL1       -0.5446
     33 O         143.0359  137.5298  157.8089 O.co2   1  UNL1       -0.5446
@<TRIPOS>UNITY_ATOM_ATTR
32 1
charge -1
@<TRIPOS>BOND
     1    14    15    1
     2    15    16   ar
     3    16    17   ar
     4    17    18    1
     5    17    19   ar
     6    19    20   ar
     7    20    21   ar
     8    21     1    1
     9     1     2   ar
    10     2    22    1
    11    22    23    1
    12    23    24   ar
    13    24    25   ar
    14    25    26   ar
    15    26    29    1
    16    29    30    2
    17    30    31    1
    18    31    32   ar
    19    31    33   ar
    20    26    27   ar
    21    27    28   ar
    22     2     3   ar
    23     3     4   ar
    24     4     5   ar
    25     5     6   ar
    26     6     7    1
    27     6     8   ar
    28     8     9   ar
    29     9    10   ar
    30    10    11   ar
    31    11    12    2
    32    21    15   ar
    33    11     1   ar
    34    28    23   ar
    35     9     3   ar
    36     7    13    1
@<TRIPOS>MOLECULE
*****
 33 36 0 0 0
SMALL
GASTEIGER

@<TRIPOS>ATOM
      1 C         140.8448  143.3108  161.5415 C.ar    1  UNL1        0.1102
      2 C         141.4269  141.9285  161.5349 C.ar    1  UNL1        0.1543
      3 C         142.3673  141.5158  160.4415 C.ar    1  UNL1        0.0696
      4 C         142.9494  140.1335  160.4348 C.ar    1  UNL1        0.0092
      5 C         143.8897  139.7209  159.3414 C.ar    1  UNL1        0.0369
      6 C         144.2479  140.6907  158.2546 C.ar    1  UNL1        0.1367
      7 O         145.1882  140.2781  157.1612 O.3     1  UNL1       -0.5054
      8 C         143.6657  142.0731  158.2612 C.ar    1  UNL1        0.0743
      9 C         142.7254  142.4857  159.3546 C.ar    1  UNL1        0.1546
     10 O         142.1433  143.8681  159.3613 O.2     1  UNL1       -0.4208
     11 C         141.2030  144.2807  160.4547 C.ar    1  UNL1        0.3487
     12 O         140.6208  145.6631  160.4614 O.2     1  UNL1       -0.2444
     13 H         145.5519  139.4146  157.1570 H       1  UNL1        0.2922
     14 C         141.8491  144.9512  163.8438 C.3     1  UNL1        0.0311
     15 C         140.4066  144.5436  163.7861 C.ar    1  UNL1       -0.0193
     16 C         139.4663  144.9563  164.8796 C.ar    1  UNL1        0.0254
     17 C         138.0240  144.5487  164.8218 C.ar    1  UNL1        0.1398
     18 F         137.0836  144.9613  165.9153 F       1  UNL1       -0.2042
     19 C         137.5218  143.7285  163.6707 C.ar    1  UNL1        0.0296
     20 C         138.4621  143.3159  162.5772 C.ar    1  UNL1        0.0023
     21 C         139.9045  143.7235  162.6350 C.ar    1  UNL1        0.0054
     22 O         141.0688  140.9586  162.6217 O.3     1  UNL1       -0.4532
     23 C         141.5050  141.2192  164.0331 C.ar    1  UNL1        0.1453
     24 C         140.5025  141.1758  165.1480 C.ar    1  UNL1        0.0375
     25 C         140.9386  141.4363  166.5594 C.ar    1  UNL1        0.0031
     26 C         142.3772  141.7402  166.8557 C.ar    1  UNL1        0.0002
     27 C         143.3798  141.7836  165.7408 C.ar    1  UNL1        0.0031
     28 C         142.9436  141.5231  164.3295 C.ar    1  UNL1        0.0375
     29 C         142.8135  142.0007  168.2671 C.2     1  UNL1        0.0012
     30 C         141.8738  142.6595  169.2330 C.2     1  UNL1        0.0151
     31 C         142.3099  142.9201  170.6443 C.2     1  UNL1        0.0729
     32 O         143.4003  143.9123  170.9214 O.co2   1  UNL1       -0.5446
     33 O         141.6557  142.1884  171.7787 O.co2   1  UNL1       -0.5446
@<TRIPOS>UNITY_ATOM_ATTR
32 1
charge -1
@<TRIPOS>BOND
     1    14    15    1
     2    15    16   ar
     3    16    17   ar
     4    17    18    1
     5    17    19   ar
     6    19    20   ar
     7    20    21   ar
     8    21     1    1
     9     1     2   ar
    10     2    22    1
    11    22    23    1
    12    23    24   ar
    13    24    25   ar
    14    25    26   ar
    15    26    29    1
    16    29    30    2
    17    30    31    1
    18    31    32   ar
    19    31    33   ar
    20    26    27   ar
    21    27    28   ar
    22     2     3   ar
    23     3     4   ar
    24     4     5   ar
    25     5     6   ar
    26     6     7    1
    27     6     8   ar
    28     8     9   ar
    29     9    10   ar
    30    10    11   ar
    31    11    12    2
    32    21    15   ar
    33    11     1   ar
    34    28    23   ar
    35     9     3   ar
    36     7    13    1
@<TRIPOS>MOLECULE
*****
 33 36 0 0 0
SMALL
GASTEIGER

@<TRIPOS>ATOM
      1 C         140.0377  140.3579  162.3178 C.ar    1  UNL1        0.1102
      2 C         141.5154  140.6065  162.2505 C.ar    1  UNL1        0.1543
      3 C         142.0986  141.3509  161.0861 C.ar    1  UNL1        0.0696
      4 C         143.5763  141.5994  161.0188 C.ar    1  UNL1        0.0092
      5 C         144.1593  142.3438  159.8544 C.ar    1  UNL1        0.0369
      6 C         143.2647  142.8397  158.7573 C.ar    1  UNL1        0.1367
      7 O         143.8478  143.5841  157.5928 O.3     1  UNL1       -0.5054
      8 C         141.7870  142.5911  158.8245 C.ar    1  UNL1        0.0743
      9 C         141.2039  141.8468  159.9889 C.ar    1  UNL1        0.1546
     10 O         139.7261  141.5982  160.0563 O.2     1  UNL1       -0.4208
     11 C         139.1431  140.8538  161.2207 C.ar    1  UNL1        0.3487
     12 O         137.6653  140.6052  161.2880 O.2     1  UNL1       -0.2444
     13 H         144.7709  143.7393  157.5508 H       1  UNL1        0.2922
     14 C         138.6083  141.8535  164.4903 C.3     1  UNL1        0.0311
     15 C         138.7399  140.3613  164.5685 C.ar    1  UNL1       -0.0193
     16 C         138.1567  139.6170  165.7329 C.ar    1  UNL1        0.0254
     17 C         138.2883  138.1248  165.8111 C.ar    1  UNL1        0.1398
     18 F         137.7052  137.3804  166.9755 F       1  UNL1       -0.2042
     19 C         139.0031  137.3770  164.7248 C.ar    1  UNL1        0.0296
     20 C         139.5862  138.1214  163.5604 C.ar    1  UNL1        0.0023
     21 C         139.4546  139.6135  163.4822 C.ar    1  UNL1        0.0054
     22 O         142.4101  140.1106  163.3477 O.3     1  UNL1       -0.4532
     23 C         142.2076  140.5897  164.7547 C.ar    1  UNL1        0.1453
     24 C         142.0994  139.5992  165.8759 C.ar    1  UNL1        0.0375
     25 C         141.8969  140.0781  167.2829 C.ar    1  UNL1        0.0031
     26 C         141.8027  141.5476  167.5686 C.ar    1  UNL1        0.0002
     27 C         141.9109  142.5381  166.4473 C.ar    1  UNL1        0.0031
     28 C         142.1133  142.0592  165.0404 C.ar    1  UNL1        0.0375
     29 C         141.6002  142.0267  168.9756 C.2     1  UNL1        0.0012
     30 C         140.2133  142.2690  169.4931 C.2     1  UNL1        0.0151
     31 C         140.0108  142.7481  170.9000 C.2     1  UNL1        0.0729
     32 O         140.6463  142.0116  172.0419 O.co2   1  UNL1       -0.5446
     33 O         139.1728  143.9636  171.1651 O.co2   1  UNL1       -0.5446
@<TRIPOS>UNITY_ATOM_ATTR
32 1
charge -1
@<TRIPOS>BOND
     1    14    15    1
     2    15    16   ar
     3    16    17   ar
     4    17    18    1
     5    17    19   ar
     6    19    20   ar
     7    20    21   ar
     8    21     1    1
     9     1     2   ar
    10     2    22    1
    11    22    23    1
    12    23    24   ar
    13    24    25   ar
    14    25    26   ar
    15    26    29    1
    16    29    30    2
    17    30    31    1
    18    31    32   ar
    19    31    33   ar
    20    26    27   ar
    21    27    28   ar
    22     2     3   ar
    23     3     4   ar
    24     4     5   ar
    25     5     6   ar
    26     6     7    1
    27     6     8   ar
    28     8     9   ar
    29     9    10   ar
    30    10    11   ar
    31    11    12    2
    32    21    15   ar
    33    11     1   ar
    34    28    23   ar
    35     9     3   ar
    36     7    13    1
@<TRIPOS>MOLECULE
*****
 33 36 0 0 0
SMALL
GASTEIGER

@<TRIPOS>ATOM
      1 C         141.1776  143.0878  161.7915 C.ar    1  UNL1        0.1102
      2 C         141.0684  141.7315  161.1603 C.ar    1  UNL1        0.1543
      3 C         142.0892  141.2878  160.1546 C.ar    1  UNL1        0.0696
      4 C         141.9800  139.9315  159.5234 C.ar    1  UNL1        0.0092
      5 C         143.0008  139.4879  158.5179 C.ar    1  UNL1        0.0369
      6 C         144.1307  140.4007  158.1435 C.ar    1  UNL1        0.1367
      7 O         145.1515  139.9570  157.1378 O.3     1  UNL1       -0.5054
      8 C         144.2399  141.7570  158.7746 C.ar    1  UNL1        0.0743
      9 C         143.2191  142.2006  159.7802 C.ar    1  UNL1        0.1546
     10 O         143.3283  143.5569  160.4115 O.2     1  UNL1       -0.4208
     11 C         142.3075  144.0005  161.4171 C.ar    1  UNL1        0.3487
     12 O         142.4167  145.3569  162.0483 O.2     1  UNL1       -0.2444
     13 H         145.0833  139.1098  156.7435 H       1  UNL1        0.2922
     14 C         141.8683  143.1319  164.7105 C.3     1  UNL1        0.0311
     15 C         140.5022  143.5535  164.2566 C.ar    1  UNL1       -0.0193
     16 C         139.4815  143.9971  165.2623 C.ar    1  UNL1        0.0254
     17 C         138.1154  144.4187  164.8084 C.ar    1  UNL1        0.1398
     18 F         137.0946  144.8623  165.8140 F       1  UNL1       -0.2042
     19 C         137.7700  144.3966  163.3488 C.ar    1  UNL1        0.0296
     20 C         138.7907  143.9530  162.3432 C.ar    1  UNL1        0.0023
     21 C         140.1568  143.5314  162.7971 C.ar    1  UNL1        0.0054
     22 O         139.9385  140.8187  161.5347 O.3     1  UNL1       -0.4532
     23 C         139.7075  140.4623  162.9733 C.ar    1  UNL1        0.1453
     24 C         138.3474  140.6390  163.5807 C.ar    1  UNL1        0.0375
     25 C         138.1163  140.2826  165.0193 C.ar    1  UNL1        0.0031
     26 C         139.2454  139.7495  165.8505 C.ar    1  UNL1        0.0002
     27 C         140.6055  139.5727  165.2431 C.ar    1  UNL1        0.0031
     28 C         140.8365  139.9291  163.8045 C.ar    1  UNL1        0.0375
     29 C         139.0144  139.3930  167.2892 C.2     1  UNL1        0.0012
     30 C         139.5297  140.2893  168.3759 C.2     1  UNL1        0.0151
     31 C         139.2987  139.9330  169.8145 C.2     1  UNL1        0.0729
     32 O         140.4544  139.5321  170.6828 O.co2   1  UNL1       -0.5446
     33 O         137.9121  139.9774  170.3849 O.co2   1  UNL1       -0.5446
@<TRIPOS>UNITY_ATOM_ATTR
32 1
charge -1
@<TRIPOS>BOND
     1    14    15    1
     2    15    16   ar
     3    16    17   ar
     4    17    18    1
     5    17    19   ar
     6    19    20   ar
     7    20    21   ar
     8    21     1    1
     9     1     2   ar
    10     2    22    1
    11    22    23    1
    12    23    24   ar
    13    24    25   ar
    14    25    26   ar
    15    26    29    1
    16    29    30    2
    17    30    31    1
    18    31    32   ar
    19    31    33   ar
    20    26    27   ar
    21    27    28   ar
    22     2     3   ar
    23     3     4   ar
    24     4     5   ar
    25     5     6   ar
    26     6     7    1
    27     6     8   ar
    28     8     9   ar
    29     9    10   ar
    30    10    11   ar
    31    11    12    2
    32    21    15   ar
    33    11     1   ar
    34    28    23   ar
    35     9     3   ar
    36     7    13    1
@<TRIPOS>MOLECULE
*****
 33 36 0 0 0
SMALL
GASTEIGER

@<TRIPOS>ATOM
      1 C         141.8327  142.2068  165.4005 C.ar    1  UNL1        0.1102
      2 C         142.4192  141.0940  166.2176 C.ar    1  UNL1        0.1543
      3 C         141.8725  140.7971  167.5825 C.ar    1  UNL1        0.0696
      4 C         142.4590  139.6842  168.3996 C.ar    1  UNL1        0.0092
      5 C         141.9123  139.3874  169.7645 C.ar    1  UNL1        0.0369
      6 C         140.7791  140.2033  170.3123 C.ar    1  UNL1        0.1367
      7 O         140.2324  139.9064  171.6772 O.3     1  UNL1       -0.5054
      8 C         140.1926  141.3161  169.4952 C.ar    1  UNL1        0.0743
      9 C         140.7393  141.6130  168.1304 C.ar    1  UNL1        0.1546
     10 O         140.1528  142.7259  167.3132 O.2     1  UNL1       -0.4208
     11 C         140.6995  143.0228  165.9484 C.ar    1  UNL1        0.3487
     12 O         140.1131  144.1357  165.1312 O.2     1  UNL1       -0.2444
     13 H         140.5987  139.2112  172.1876 H       1  UNL1        0.2922
     14 C         144.4029  143.7270  165.1123 C.3     1  UNL1        0.0311
     15 C         143.6645  143.2638  163.8915 C.ar    1  UNL1       -0.0193
     16 C         144.2113  143.5608  162.5266 C.ar    1  UNL1        0.0254
     17 C         143.4729  143.0976  161.3059 C.ar    1  UNL1        0.1398
     18 F         144.0196  143.3946  159.9409 F       1  UNL1       -0.2042
     19 C         142.1877  142.3376  161.4500 C.ar    1  UNL1        0.0296
     20 C         141.6410  142.0406  162.8149 C.ar    1  UNL1        0.0023
     21 C         142.3794  142.5038  164.0356 C.ar    1  UNL1        0.0054
     22 O         143.5524  140.2780  165.6698 O.3     1  UNL1       -0.4532
     23 C         143.4049  139.5805  164.3499 C.ar    1  UNL1        0.1453
     24 C         144.4318  139.7834  163.2756 C.ar    1  UNL1        0.0375
     25 C         144.2844  139.0859  161.9558 C.ar    1  UNL1        0.0031
     26 C         143.1100  138.1857  161.7105 C.ar    1  UNL1        0.0002
     27 C         142.0830  137.9828  162.7848 C.ar    1  UNL1        0.0031
     28 C         142.2305  138.6803  164.1046 C.ar    1  UNL1        0.0375
     29 C         142.9625  137.4882  160.3906 C.2     1  UNL1        0.0012
     30 C         142.5837  138.2696  159.1676 C.2     1  UNL1        0.0151
     31 C         142.4361  137.5722  157.8478 C.2     1  UNL1        0.0729
     32 O         141.4645  138.0913  156.8297 O.co2   1  UNL1       -0.5446
     33 O         143.2602  136.3557  157.5462 O.co2   1  UNL1       -0.5446
@<TRIPOS>UNITY_ATOM_ATTR
32 1
charge -1
@<TRIPOS>BOND
     1    14    15    1
     2    15    16   ar
     3    16    17   ar
     4    17    18    1
     5    17    19   ar
     6    19    20   ar
     7    20    21   ar
     8    21     1    1
     9     1     2   ar
    10     2    22    1
    11    22    23    1
    12    23    24   ar
    13    24    25   ar
    14    25    26   ar
    15    26    29    1
    16    29    30    2
    17    30    31    1
    18    31    32   ar
    19    31    33   ar
    20    26    27   ar
    21    27    28   ar
    22     2     3   ar
    23     3     4   ar
    24     4     5   ar
    25     5     6   ar
    26     6     7    1
    27     6     8   ar
    28     8     9   ar
    29     9    10   ar
    30    10    11   ar
    31    11    12    2
    32    21    15   ar
    33    11     1   ar
    34    28    23   ar
    35     9     3   ar
    36     7    13    1
@<TRIPOS>MOLECULE
*****
 33 36 0 0 0
SMALL
GASTEIGER

@<TRIPOS>ATOM
      1 C         140.3403  140.0131  165.9437 C.ar    1  UNL1        0.1102
      2 C         141.2373  141.0029  166.6261 C.ar    1  UNL1        0.1543
      3 C         141.0290  141.3292  168.0753 C.ar    1  UNL1        0.0696
      4 C         141.9260  142.3190  168.7577 C.ar    1  UNL1        0.0092
      5 C         141.7176  142.6452  170.2069 C.ar    1  UNL1        0.0369
      6 C         140.6123  141.9817  170.9736 C.ar    1  UNL1        0.1367
      7 O         140.4039  142.3080  172.4229 O.3     1  UNL1       -0.5054
      8 C         139.7153  140.9920  170.2913 C.ar    1  UNL1        0.0743
      9 C         139.9236  140.6657  168.8421 C.ar    1  UNL1        0.1546
     10 O         139.0266  139.6759  168.1597 O.2     1  UNL1       -0.4208
     11 C         139.2349  139.3496  166.7105 C.ar    1  UNL1        0.3487
     12 O         138.3379  138.3598  166.0280 O.2     1  UNL1       -0.2444
     13 H         140.9643  142.9263  172.8491 H       1  UNL1        0.2922
     14 C         142.4827  138.0747  165.1356 C.3     1  UNL1        0.0311
     15 C         141.6198  138.7176  164.0904 C.ar    1  UNL1       -0.0193
     16 C         141.8282  138.3913  162.6413 C.ar    1  UNL1        0.0254
     17 C         140.9653  139.0341  161.5962 C.ar    1  UNL1        0.1398
     18 F         141.1737  138.7078  160.1470 F       1  UNL1       -0.2042
     19 C         139.8942  140.0033  162.0003 C.ar    1  UNL1        0.0296
     20 C         139.6858  140.3297  163.4494 C.ar    1  UNL1        0.0023
     21 C         140.5486  139.6868  164.4945 C.ar    1  UNL1        0.0054
     22 O         142.3427  141.6664  165.8593 O.3     1  UNL1       -0.4532
     23 C         142.0220  142.5187  164.6673 C.ar    1  UNL1        0.1453
     24 C         142.6903  142.2500  163.3516 C.ar    1  UNL1        0.0375
     25 C         142.3697  143.1022  162.1596 C.ar    1  UNL1        0.0031
     26 C         141.3806  144.2231  162.2834 C.ar    1  UNL1        0.0002
     27 C         140.7123  144.4918  163.5991 C.ar    1  UNL1        0.0031
     28 C         141.0329  143.6396  164.7911 C.ar    1  UNL1        0.0375
     29 C         141.0599  145.0754  161.0913 C.2     1  UNL1        0.0012
     30 C         141.6761  144.7646  159.7595 C.2     1  UNL1        0.0151
     31 C         141.3555  145.6168  158.5676 C.2     1  UNL1        0.0729
     32 O         142.4628  146.1552  157.7108 O.co2   1  UNL1       -0.5446
     33 O         139.9275  145.9306  158.2323 O.co2   1  UNL1       -0.5446
@<TRIPOS>UNITY_ATOM_ATTR
32 1
charge -1
@<TRIPOS>BOND
     1    14    15    1
     2    15    16   ar
     3    16    17   ar
     4    17    18    1
     5    17    19   ar
     6    19    20   ar
     7    20    21   ar
     8    21     1    1
     9     1     2   ar
    10     2    22    1
    11    22    23    1
    12    23    24   ar
    13    24    25   ar
    14    25    26   ar
    15    26    29    1
    16    29    30    2
    17    30    31    1
    18    31    32   ar
    19    31    33   ar
    20    26    27   ar
    21    27    28   ar
    22     2     3   ar
    23     3     4   ar
    24     4     5   ar
    25     5     6   ar
    26     6     7    1
    27     6     8   ar
    28     8     9   ar
    29     9    10   ar
    30    10    11   ar
    31    11    12    2
    32    21    15   ar
    33    11     1   ar
    34    28    23   ar
    35     9     3   ar
    36     7    13    1
