@<TRIPOS>MOLECULE
*****
 38 42 0 0 0
SMALL
GASTEIGER

@<TRIPOS>ATOM
      1 C         142.9670  138.8136  158.4214 C.ar    1  UNL1        0.1981
      2 N         143.3022  137.7179  157.4533 N.ar    1  UNL1       -0.2138
      3 C         142.0418  137.3284  156.7395 C.ar    1  UNL1        0.0999
      4 C         141.7647  136.3056  155.6778 C.ar    1  UNL1        0.0207
      5 C         140.3734  136.1379  155.1430 C.ar    1  UNL1        0.0016
      6 C         139.2592  136.9928  155.6698 C.ar    1  UNL1        0.0016
      7 C         139.5363  138.0156  156.7315 C.ar    1  UNL1        0.0188
      8 C         140.9276  138.1833  157.2663 C.ar    1  UNL1        0.0801
      9 N         141.4994  139.1013  158.3058 N.ar    1  UNL1       -0.2955
     10 N         143.9303  139.5010  159.3431 N.pl3   1  UNL1       -0.3058
     11 H         144.6480  140.0647  158.9738 H       1  UNL1        0.1495
     12 N         143.5398  138.9864  163.7965 N.3     1  UNL1       -0.2723
     13 C         144.3207  140.1400  163.2405 C.3     1  UNL1        0.0738
     14 C         144.4509  140.3116  161.7560 C.3     1  UNL1        0.0369
     15 C         143.8001  139.3295  160.8275 C.3     1  UNL1        0.0745
     16 C         143.0192  138.1757  161.3836 C.3     1  UNL1        0.0369
     17 C         142.8891  138.0042  162.8681 C.3     1  UNL1        0.0738
     18 C         143.4096  138.8148  165.2810 C.3     1  UNL1        0.0768
     19 C         142.0551  138.8515  165.9243 C.3     1  UNL1        0.0437
     20 C         140.9011  142.3249  168.5423 C.ar    1  UNL1        0.0684
     21 C         139.9683  141.1605  168.3868 C.ar    1  UNL1        0.0100
     22 C         140.3530  140.0027  167.5142 C.ar    1  UNL1       -0.0035
     23 C         141.6704  140.0093  166.7969 C.ar    1  UNL1       -0.0207
     24 C         142.6032  141.1737  166.9524 C.ar    1  UNL1       -0.0035
     25 C         142.2185  142.3315  167.8251 C.ar    1  UNL1        0.0100
     26 N         140.1318  144.6405  170.2877 N.1     1  UNL1       -0.1908
     27 C         140.5164  143.4827  169.4150 C.1     1  UNL1        0.1004
     28 C         140.7374  140.1268  159.0916 C.3     1  UNL1        0.1370
     29 C         140.1932  139.7816  160.4461 C.ar    1  UNL1        0.0196
     30 C         140.4520  140.6892  161.6120 C.ar    1  UNL1        0.0006
     31 C         139.9078  140.3441  162.9665 C.ar    1  UNL1        0.0228
     32 C         139.1048  139.0912  163.1551 C.ar    1  UNL1        0.1526
     33 N         138.8461  138.1835  161.9893 N.ar    1  UNL1       -0.2401
     34 C         139.3903  138.5287  160.6348 C.ar    1  UNL1        0.0963
     35 C         138.5607  138.7460  164.5097 C.3     1  UNL1        0.4348
     36 F         138.0165  138.4008  165.8642 F       1  UNL1       -0.1644
     37 F         138.2144  140.1876  164.7380 F       1  UNL1       -0.1644
     38 F         138.9069  137.3045  164.2814 F       1  UNL1       -0.1644
@<TRIPOS>BOND
     1    26    27    3
     2    27    20    1
     3    20    21   ar
     4    21    22   ar
     5    22    23   ar
     6    23    19    1
     7    19    18    1
     8    18    12    1
     9    12    13    1
    10    13    14    1
    11    14    15    1
    12    15    10    1
    13    10     1    1
    14     1     2   ar
    15     2     3   ar
    16     3     4   ar
    17     4     5   ar
    18     5     6   ar
    19     6     7   ar
    20     7     8   ar
    21     8     9   ar
    22     9    28    1
    23    28    29    1
    24    29    30   ar
    25    30    31   ar
    26    31    32   ar
    27    32    35    1
    28    35    36    1
    29    35    37    1
    30    35    38    1
    31    32    33   ar
    32    33    34   ar
    33    15    16    1
    34    16    17    1
    35    23    24   ar
    36    24    25   ar
    37    25    20   ar
    38    17    12    1
    39     9     1   ar
    40    34    29   ar
    41     8     3   ar
    42    10    11    1
@<TRIPOS>MOLECULE
*****
 38 42 0 0 0
SMALL
GASTEIGER

@<TRIPOS>ATOM
      1 C         139.8217  138.7348  158.1538 C.ar    1  UNL1        0.1981
      2 N         139.4678  137.6564  157.1732 N.ar    1  UNL1       -0.2138
      3 C         140.7424  137.1301  156.5829 C.ar    1  UNL1        0.0999
      4 C         141.0109  136.0624  155.5642 C.ar    1  UNL1        0.0207
      5 C         142.4212  135.7478  155.1613 C.ar    1  UNL1        0.0016
      6 C         143.5628  136.5010  155.7772 C.ar    1  UNL1        0.0016
      7 C         143.2943  137.5688  156.7958 C.ar    1  UNL1        0.0188
      8 C         141.8841  137.8833  157.1987 C.ar    1  UNL1        0.0801
      9 N         141.3151  138.8751  158.1696 N.ar    1  UNL1       -0.2955
     10 N         138.8525  139.5329  158.9746 N.pl3   1  UNL1       -0.3058
     11 H         138.2786  140.2059  158.5421 H       1  UNL1        0.1495
     12 N         138.5675  138.8509  163.4134 N.3     1  UNL1       -0.2723
     13 C         139.1284  137.7806  162.5247 C.3     1  UNL1        0.0738
     14 C         139.2234  138.0079  161.0450 C.3     1  UNL1        0.0369
     15 C         138.7575  139.3055  160.4542 C.3     1  UNL1        0.0745
     16 C         138.1966  140.3758  161.3430 C.3     1  UNL1        0.0369
     17 C         138.1016  140.1485  162.8226 C.3     1  UNL1        0.0738
     18 C         138.4725  138.6236  164.8931 C.3     1  UNL1        0.0768
     19 C         138.2713  139.7863  165.8192 C.3     1  UNL1        0.0437
     20 C         141.7690  141.4974  168.0749 C.ar    1  UNL1        0.0684
     21 C         141.4778  141.9612  166.6784 C.ar    1  UNL1        0.0100
     22 C         140.3119  141.3908  165.9265 C.ar    1  UNL1       -0.0035
     23 C         139.4372  140.3566  166.5711 C.ar    1  UNL1       -0.0207
     24 C         139.7284  139.8929  167.9675 C.ar    1  UNL1       -0.0035
     25 C         140.8944  140.4633  168.7194 C.ar    1  UNL1        0.0100
     26 N         144.1008  142.6381  169.5787 N.1     1  UNL1       -0.1908
     27 C         142.9349  142.0678  168.8268 C.1     1  UNL1        0.1004
     28 C         142.1014  139.8380  159.0089 C.3     1  UNL1        0.1370
     29 C         142.2694  139.5884  160.4783 C.ar    1  UNL1        0.0196
     30 C         141.9209  140.6620  161.4662 C.ar    1  UNL1        0.0006
     31 C         142.0889  140.4124  162.9357 C.ar    1  UNL1        0.0228
     32 C         142.6056  139.0891  163.4174 C.ar    1  UNL1        0.1526
     33 N         142.9541  138.0155  162.4296 N.ar    1  UNL1       -0.2401
     34 C         142.7861  138.2651  160.9601 C.ar    1  UNL1        0.0963
     35 C         142.7736  138.8395  164.8869 C.3     1  UNL1        0.4348
     36 F         142.9417  138.5899  166.3564 F       1  UNL1       -0.1644
     37 F         143.8750  139.8568  164.9338 F       1  UNL1       -0.1644
     38 F         141.6723  137.8223  164.8401 F       1  UNL1       -0.1644
@<TRIPOS>BOND
     1    26    27    3
     2    27    20    1
     3    20    21   ar
     4    21    22   ar
     5    22    23   ar
     6    23    19    1
     7    19    18    1
     8    18    12    1
     9    12    13    1
    10    13    14    1
    11    14    15    1
    12    15    10    1
    13    10     1    1
    14     1     2   ar
    15     2     3   ar
    16     3     4   ar
    17     4     5   ar
    18     5     6   ar
    19     6     7   ar
    20     7     8   ar
    21     8     9   ar
    22     9    28    1
    23    28    29    1
    24    29    30   ar
    25    30    31   ar
    26    31    32   ar
    27    32    35    1
    28    35    36    1
    29    35    37    1
    30    35    38    1
    31    32    33   ar
    32    33    34   ar
    33    15    16    1
    34    16    17    1
    35    23    24   ar
    36    24    25   ar
    37    25    20   ar
    38    17    12    1
    39     9     1   ar
    40    34    29   ar
    41     8     3   ar
    42    10    11    1
@<TRIPOS>MOLECULE
*****
 38 42 0 0 0
SMALL
GASTEIGER

@<TRIPOS>ATOM
      1 C         138.9250  141.4921  159.6618 C.ar    1  UNL1        0.1981
      2 N         138.5721  142.9151  159.3447 N.ar    1  UNL1       -0.2138
      3 C         139.8111  143.6008  158.8498 C.ar    1  UNL1        0.0999
      4 C         140.0652  145.0059  158.3904 C.ar    1  UNL1        0.0207
      5 C         141.4379  145.4117  157.9422 C.ar    1  UNL1        0.0016
      6 C         142.5565  144.4124  157.9534 C.ar    1  UNL1        0.0016
      7 C         142.3024  143.0073  158.4128 C.ar    1  UNL1        0.0188
      8 C         140.9297  142.6015  158.8610 C.ar    1  UNL1        0.0801
      9 N         140.3820  141.2983  159.3629 N.ar    1  UNL1       -0.2955
     10 N         137.9857  140.4466  160.1858 N.pl3   1  UNL1       -0.3058
     11 H         137.2560  140.1106  159.6167 H       1  UNL1        0.1495
     12 N         138.5031  138.8455  164.3594 N.3     1  UNL1       -0.2723
     13 C         138.7102  137.9434  163.1790 C.3     1  UNL1        0.0738
     14 C         138.5378  138.4771  161.7878 C.3     1  UNL1        0.0369
     15 C         138.1582  139.9129  161.5770 C.3     1  UNL1        0.0745
     16 C         137.9511  140.8150  162.7574 C.3     1  UNL1        0.0369
     17 C         138.1236  140.2813  164.1486 C.3     1  UNL1        0.0738
     18 C         138.6756  138.3118  165.7507 C.3     1  UNL1        0.0768
     19 C         138.4970  139.2210  166.9302 C.3     1  UNL1        0.0437
     20 C         142.0518  141.3436  168.6933 C.ar    1  UNL1        0.0684
     21 C         142.0137  141.0365  167.2256 C.ar    1  UNL1        0.0100
     22 C         140.8288  140.3290  166.6379 C.ar    1  UNL1       -0.0035
     23 C         139.6819  139.9285  167.5179 C.ar    1  UNL1       -0.0207
     24 C         139.7200  140.2356  168.9856 C.ar    1  UNL1       -0.0035
     25 C         140.9050  140.9432  169.5733 C.ar    1  UNL1        0.0100
     26 N         144.4216  142.7587  169.8688 N.1     1  UNL1       -0.1908
     27 C         143.2366  142.0511  169.2810 C.1     1  UNL1        0.1004
     28 C         141.1557  140.0248  159.5354 C.3     1  UNL1        0.1370
     29 C         141.7272  139.6703  160.8761 C.ar    1  UNL1        0.0196
     30 C         141.7612  140.6944  161.9716 C.ar    1  UNL1        0.0006
     31 C         142.3328  140.3399  163.3124 C.ar    1  UNL1        0.0228
     32 C         142.8703  138.9611  163.5576 C.ar    1  UNL1        0.1526
     33 N         142.8363  137.9370  162.4622 N.ar    1  UNL1       -0.2401
     34 C         142.2648  138.2916  161.1215 C.ar    1  UNL1        0.0963
     35 C         143.4419  138.6066  164.8984 C.3     1  UNL1        0.4348
     36 F         144.0134  138.2520  166.2392 F       1  UNL1       -0.1644
     37 F         144.6142  139.5049  164.6363 F       1  UNL1       -0.1644
     38 F         142.2696  137.7083  165.1606 F       1  UNL1       -0.1644
@<TRIPOS>BOND
     1    26    27    3
     2    27    20    1
     3    20    21   ar
     4    21    22   ar
     5    22    23   ar
     6    23    19    1
     7    19    18    1
     8    18    12    1
     9    12    13    1
    10    13    14    1
    11    14    15    1
    12    15    10    1
    13    10     1    1
    14     1     2   ar
    15     2     3   ar
    16     3     4   ar
    17     4     5   ar
    18     5     6   ar
    19     6     7   ar
    20     7     8   ar
    21     8     9   ar
    22     9    28    1
    23    28    29    1
    24    29    30   ar
    25    30    31   ar
    26    31    32   ar
    27    32    35    1
    28    35    36    1
    29    35    37    1
    30    35    38    1
    31    32    33   ar
    32    33    34   ar
    33    15    16    1
    34    16    17    1
    35    23    24   ar
    36    24    25   ar
    37    25    20   ar
    38    17    12    1
    39     9     1   ar
    40    34    29   ar
    41     8     3   ar
    42    10    11    1
@<TRIPOS>MOLECULE
*****
 38 42 0 0 0
SMALL
GASTEIGER

@<TRIPOS>ATOM
      1 C         139.7548  138.9026  159.7563 C.ar    1  UNL1        0.1981
      2 N         140.4443  138.8916  158.4243 N.ar    1  UNL1       -0.2138
      3 C         139.6202  139.7029  157.4689 C.ar    1  UNL1        0.0999
      4 C         139.8066  140.0413  156.0196 C.ar    1  UNL1        0.0207
      5 C         138.7940  140.8920  155.3119 C.ar    1  UNL1        0.0016
      6 C         137.5951  141.4044  156.0535 C.ar    1  UNL1        0.0016
      7 C         137.4087  141.0660  157.5029 C.ar    1  UNL1        0.0188
      8 C         138.4213  140.2153  158.2106 C.ar    1  UNL1        0.0801
      9 N         138.5044  139.7206  159.6242 N.ar    1  UNL1       -0.2955
     10 N         140.2318  138.2160  161.0018 N.pl3   1  UNL1       -0.3058
     11 H         139.9124  137.3100  161.2175 H       1  UNL1        0.1495
     12 N         143.1222  140.2972  163.7520 N.3     1  UNL1       -0.2723
     13 C         142.2435  141.1010  162.8401 C.3     1  UNL1        0.0738
     14 C         141.2800  140.4073  161.9233 C.3     1  UNL1        0.0369
     15 C         141.1952  138.9097  161.9185 C.3     1  UNL1        0.0745
     16 C         142.0740  138.1059  162.8305 C.3     1  UNL1        0.0369
     17 C         143.0374  138.7996  163.7472 C.3     1  UNL1        0.0738
     18 C         144.0858  140.9909  164.6688 C.3     1  UNL1        0.0768
     19 C         143.5810  141.9763  165.6807 C.3     1  UNL1        0.0437
     20 C         140.3194  140.7892  168.5448 C.ar    1  UNL1        0.0684
     21 C         141.5052  139.8925  168.3451 C.ar    1  UNL1        0.0100
     22 C         142.5924  140.2882  167.3904 C.ar    1  UNL1       -0.0035
     23 C         142.4938  141.5806  166.6354 C.ar    1  UNL1       -0.0207
     24 C         141.3080  142.4773  166.8351 C.ar    1  UNL1       -0.0035
     25 C         140.2208  142.0816  167.7898 C.ar    1  UNL1        0.0100
     26 N         138.1449  139.9978  170.4541 N.1     1  UNL1       -0.1908
     27 C         139.2322  140.3935  169.4994 C.1     1  UNL1        0.1004
     28 C         137.5116  139.9958  160.7144 C.3     1  UNL1        0.1370
     29 C         137.7795  141.0787  161.7171 C.ar    1  UNL1        0.0196
     30 C         137.7827  140.7596  163.1829 C.ar    1  UNL1        0.0006
     31 C         138.0506  141.8425  164.1857 C.ar    1  UNL1        0.0228
     32 C         138.3154  143.2445  163.7227 C.ar    1  UNL1        0.1526
     33 N         138.3123  143.5636  162.2571 N.ar    1  UNL1       -0.2401
     34 C         138.0443  142.4807  161.2543 C.ar    1  UNL1        0.0963
     35 C         138.5834  144.3274  164.7255 C.3     1  UNL1        0.4348
     36 F         138.8513  145.4102  165.7283 F       1  UNL1       -0.1644
     37 F         137.1308  144.3405  165.0996 F       1  UNL1       -0.1644
     38 F         140.0359  144.3143  164.3515 F       1  UNL1       -0.1644
@<TRIPOS>BOND
     1    26    27    3
     2    27    20    1
     3    20    21   ar
     4    21    22   ar
     5    22    23   ar
     6    23    19    1
     7    19    18    1
     8    18    12    1
     9    12    13    1
    10    13    14    1
    11    14    15    1
    12    15    10    1
    13    10     1    1
    14     1     2   ar
    15     2     3   ar
    16     3     4   ar
    17     4     5   ar
    18     5     6   ar
    19     6     7   ar
    20     7     8   ar
    21     8     9   ar
    22     9    28    1
    23    28    29    1
    24    29    30   ar
    25    30    31   ar
    26    31    32   ar
    27    32    35    1
    28    35    36    1
    29    35    37    1
    30    35    38    1
    31    32    33   ar
    32    33    34   ar
    33    15    16    1
    34    16    17    1
    35    23    24   ar
    36    24    25   ar
    37    25    20   ar
    38    17    12    1
    39     9     1   ar
    40    34    29   ar
    41     8     3   ar
    42    10    11    1
@<TRIPOS>MOLECULE
*****
 38 42 0 0 0
SMALL
GASTEIGER

@<TRIPOS>ATOM
      1 C         142.4936  137.8187  160.2040 C.ar    1  UNL1        0.1981
      2 N         143.1775  137.0338  159.1242 N.ar    1  UNL1       -0.2138
      3 C         142.5769  137.4337  157.8091 C.ar    1  UNL1        0.0999
      4 C         142.8545  136.9913  156.4030 C.ar    1  UNL1        0.0207
      5 C         142.0769  137.5811  155.2640 C.ar    1  UNL1        0.0016
      6 C         141.0218  138.6133  155.5310 C.ar    1  UNL1        0.0016
      7 C         140.7442  139.0556  156.9372 C.ar    1  UNL1        0.0188
      8 C         141.5218  138.4658  158.0762 C.ar    1  UNL1        0.0801
      9 N         141.4703  138.7038  159.5563 N.ar    1  UNL1       -0.2955
     10 N         142.7823  137.7336  161.6735 N.pl3   1  UNL1       -0.3058
     11 H         142.5296  136.9274  162.1789 H       1  UNL1        0.1495
     12 N         144.8034  141.1631  163.7719 N.3     1  UNL1       -0.2723
     13 C         144.7564  141.1238  162.2732 C.3     1  UNL1        0.0738
     14 C         144.0826  139.9806  161.5737 C.3     1  UNL1        0.0369
     15 C         143.4560  138.8768  162.3730 C.3     1  UNL1        0.0745
     16 C         143.5030  138.9161  163.8718 C.3     1  UNL1        0.0369
     17 C         144.1767  140.0593  164.5712 C.3     1  UNL1        0.0738
     18 C         145.4771  142.3063  164.4715 C.3     1  UNL1        0.0768
     19 C         144.6536  143.3902  165.1015 C.3     1  UNL1        0.0437
     20 C         140.5064  144.2398  163.5757 C.ar    1  UNL1        0.0684
     21 C         140.7003  143.3368  164.7576 C.ar    1  UNL1        0.0100
     22 C         142.0827  143.0536  165.2662 C.ar    1  UNL1       -0.0035
     23 C         143.2712  143.6734  164.5929 C.ar    1  UNL1       -0.0207
     24 C         143.0773  144.5764  163.4110 C.ar    1  UNL1       -0.0035
     25 C         141.6948  144.8596  162.9024 C.ar    1  UNL1        0.0100
     26 N         137.7415  144.8063  162.5584 N.1     1  UNL1       -0.1908
     27 C         139.1240  144.5230  163.0671 C.1     1  UNL1        0.1004
     28 C         140.5560  139.6591  160.2644 C.3     1  UNL1        0.1370
     29 C         139.9998  139.3057  161.6118 C.ar    1  UNL1        0.0196
     30 C         140.2198  140.2231  162.7781 C.ar    1  UNL1        0.0006
     31 C         139.6636  139.8698  164.1257 C.ar    1  UNL1        0.0228
     32 C         138.8873  138.5990  164.3069 C.ar    1  UNL1        0.1526
     33 N         138.6673  137.6818  163.1407 N.ar    1  UNL1       -0.2401
     34 C         139.2235  138.0351  161.7931 C.ar    1  UNL1        0.0963
     35 C         138.3311  138.2457  165.6544 C.3     1  UNL1        0.4348
     36 F         137.7749  137.8924  167.0019 F       1  UNL1       -0.1644
     37 F         137.7685  139.6301  165.7852 F       1  UNL1       -0.1644
     38 F         138.8937  136.8614  165.5236 F       1  UNL1       -0.1644
@<TRIPOS>BOND
     1    26    27    3
     2    27    20    1
     3    20    21   ar
     4    21    22   ar
     5    22    23   ar
     6    23    19    1
     7    19    18    1
     8    18    12    1
     9    12    13    1
    10    13    14    1
    11    14    15    1
    12    15    10    1
    13    10     1    1
    14     1     2   ar
    15     2     3   ar
    16     3     4   ar
    17     4     5   ar
    18     5     6   ar
    19     6     7   ar
    20     7     8   ar
    21     8     9   ar
    22     9    28    1
    23    28    29    1
    24    29    30   ar
    25    30    31   ar
    26    31    32   ar
    27    32    35    1
    28    35    36    1
    29    35    37    1
    30    35    38    1
    31    32    33   ar
    32    33    34   ar
    33    15    16    1
    34    16    17    1
    35    23    24   ar
    36    24    25   ar
    37    25    20   ar
    38    17    12    1
    39     9     1   ar
    40    34    29   ar
    41     8     3   ar
    42    10    11    1
@<TRIPOS>MOLECULE
*****
 38 42 0 0 0
SMALL
GASTEIGER

@<TRIPOS>ATOM
      1 C         139.4098  139.5646  158.2298 C.ar    1  UNL1        0.1981
      2 N         138.4436  139.3764  157.0979 N.ar    1  UNL1       -0.2138
      3 C         138.1047  140.7301  156.5477 C.ar    1  UNL1        0.0999
      4 C         137.2049  141.1618  155.4280 C.ar    1  UNL1        0.0207
      5 C         137.0617  142.6185  155.1001 C.ar    1  UNL1        0.0016
      6 C         137.8184  143.6434  155.8919 C.ar    1  UNL1        0.0016
      7 C         138.7183  143.2116  157.0117 C.ar    1  UNL1        0.0188
      8 C         138.8614  141.7550  157.3395 C.ar    1  UNL1        0.0801
      9 N         139.6680  141.0347  158.3791 N.ar    1  UNL1       -0.2955
     10 N         140.0119  138.4743  159.0656 N.pl3   1  UNL1       -0.3058
     11 H         140.5679  137.7803  158.6430 H       1  UNL1        0.1495
     12 N         139.2776  138.3756  163.5041 N.3     1  UNL1       -0.2723
     13 C         138.1639  138.7396  162.5676 C.3     1  UNL1        0.0738
     14 C         138.4087  138.7725  161.0880 C.3     1  UNL1        0.0369
     15 C         139.7672  138.4414  160.5450 C.3     1  UNL1        0.0745
     16 C         140.8809  138.0773  161.4816 C.3     1  UNL1        0.0369
     17 C         140.6361  138.0444  162.9611 C.3     1  UNL1        0.0738
     18 C         139.0329  138.3427  164.9837 C.3     1  UNL1        0.0768
     19 C         138.3983  139.5185  165.6653 C.3     1  UNL1        0.0437
     20 C         140.7526  141.9316  168.6459 C.ar    1  UNL1        0.0684
     21 C         140.0356  140.6895  169.0855 C.ar    1  UNL1        0.0100
     22 C         139.2509  139.8851  168.0919 C.ar    1  UNL1       -0.0035
     23 C         139.1830  140.3229  166.6588 C.ar    1  UNL1       -0.0207
     24 C         139.9000  141.5650  166.2192 C.ar    1  UNL1       -0.0035
     25 C         140.6848  142.3693  167.2129 C.ar    1  UNL1        0.0100
     26 N         142.3222  143.5403  170.6331 N.1     1  UNL1       -0.1908
     27 C         141.5373  142.7359  169.6394 C.1     1  UNL1        0.1004
     28 C         140.5737  141.6725  159.3904 C.3     1  UNL1        0.1370
     29 C         139.9969  142.2924  160.6285 C.ar    1  UNL1        0.0196
     30 C         138.5096  142.3521  160.8143 C.ar    1  UNL1        0.0006
     31 C         137.9326  142.9721  162.0524 C.ar    1  UNL1        0.0228
     32 C         138.8431  143.5324  163.1047 C.ar    1  UNL1        0.1526
     33 N         140.3303  143.4727  162.9188 N.ar    1  UNL1       -0.2401
     34 C         140.9072  142.8528  161.6808 C.ar    1  UNL1        0.0963
     35 C         138.2661  144.1524  164.3427 C.3     1  UNL1        0.4348
     36 F         137.6892  144.7724  165.5808 F       1  UNL1       -0.1644
     37 F         137.3812  142.9557  164.5297 F       1  UNL1       -0.1644
     38 F         139.1510  145.3491  164.1558 F       1  UNL1       -0.1644
@<TRIPOS>BOND
     1    26    27    3
     2    27    20    1
     3    20    21   ar
     4    21    22   ar
     5    22    23   ar
     6    23    19    1
     7    19    18    1
     8    18    12    1
     9    12    13    1
    10    13    14    1
    11    14    15    1
    12    15    10    1
    13    10     1    1
    14     1     2   ar
    15     2     3   ar
    16     3     4   ar
    17     4     5   ar
    18     5     6   ar
    19     6     7   ar
    20     7     8   ar
    21     8     9   ar
    22     9    28    1
    23    28    29    1
    24    29    30   ar
    25    30    31   ar
    26    31    32   ar
    27    32    35    1
    28    35    36    1
    29    35    37    1
    30    35    38    1
    31    32    33   ar
    32    33    34   ar
    33    15    16    1
    34    16    17    1
    35    23    24   ar
    36    24    25   ar
    37    25    20   ar
    38    17    12    1
    39     9     1   ar
    40    34    29   ar
    41     8     3   ar
    42    10    11    1
@<TRIPOS>MOLECULE
*****
 38 42 0 0 0
SMALL
GASTEIGER

@<TRIPOS>ATOM
      1 C         139.1754  139.4507  160.0578 C.ar    1  UNL1        0.1981
      2 N         139.9329  138.2129  159.6783 N.ar    1  UNL1       -0.2138
      3 C         141.0329  138.6120  158.7397 C.ar    1  UNL1        0.0999
      4 C         142.0952  137.8155  158.0419 C.ar    1  UNL1        0.0207
      5 C         143.0797  138.5034  157.1434 C.ar    1  UNL1        0.0016
      6 C         143.0020  139.9879  156.9428 C.ar    1  UNL1        0.0016
      7 C         141.9397  140.7845  157.6406 C.ar    1  UNL1        0.0188
      8 C         140.9552  140.0965  158.5391 C.ar    1  UNL1        0.0801
      9 N         139.8072  140.6148  159.3537 N.ar    1  UNL1       -0.2955
     10 N         137.9936  139.5134  160.9794 N.pl3   1  UNL1       -0.3058
     11 H         137.0852  139.5989  160.6099 H       1  UNL1        0.1495
     12 N         138.6009  139.3106  165.4336 N.3     1  UNL1       -0.2723
     13 C         137.9788  140.5278  164.8162 C.3     1  UNL1        0.0738
     14 C         137.7764  140.5955  163.3314 C.3     1  UNL1        0.0369
     15 C         138.1960  139.4458  162.4641 C.3     1  UNL1        0.0745
     16 C         138.8181  138.2285  163.0817 C.3     1  UNL1        0.0369
     17 C         139.0205  138.1609  164.5664 C.3     1  UNL1        0.0738
     18 C         138.8033  139.2429  166.9184 C.3     1  UNL1        0.0768
     19 C         139.9755  139.9355  167.5479 C.3     1  UNL1        0.0437
     20 C         143.5978  140.9297  165.0699 C.ar    1  UNL1        0.0684
     21 C         143.3617  139.5187  165.5207 C.ar    1  UNL1        0.0100
     22 C         142.1543  139.1873  166.3467 C.ar    1  UNL1       -0.0035
     23 C         141.1829  140.2669  166.7219 C.ar    1  UNL1       -0.0207
     24 C         141.4189  141.6780  166.2710 C.ar    1  UNL1       -0.0035
     25 C         142.6264  142.0093  165.4450 C.ar    1  UNL1        0.0100
     26 N         146.0126  141.5925  163.4178 N.1     1  UNL1       -0.1908
     27 C         144.8052  141.2611  164.2439 C.1     1  UNL1        0.1004
     28 C         139.3681  142.0460  159.4477 C.3     1  UNL1        0.1370
     29 C         139.2399  142.7047  160.7892 C.ar    1  UNL1        0.0196
     30 C         140.4054  142.7164  161.7335 C.ar    1  UNL1        0.0006
     31 C         140.2773  143.3750  163.0750 C.ar    1  UNL1        0.0228
     32 C         138.9836  144.0221  163.4723 C.ar    1  UNL1        0.1526
     33 N         137.8182  144.0104  162.5280 N.ar    1  UNL1       -0.2401
     34 C         137.9463  143.3518  161.1865 C.ar    1  UNL1        0.0963
     35 C         138.8555  144.6808  164.8138 C.3     1  UNL1        0.4348
     36 F         138.7274  145.3394  166.1553 F       1  UNL1       -0.1644
     37 F         140.3148  145.0265  164.7835 F       1  UNL1       -0.1644
     38 F         137.3962  144.3350  164.8442 F       1  UNL1       -0.1644
@<TRIPOS>BOND
     1    26    27    3
     2    27    20    1
     3    20    21   ar
     4    21    22   ar
     5    22    23   ar
     6    23    19    1
     7    19    18    1
     8    18    12    1
     9    12    13    1
    10    13    14    1
    11    14    15    1
    12    15    10    1
    13    10     1    1
    14     1     2   ar
    15     2     3   ar
    16     3     4   ar
    17     4     5   ar
    18     5     6   ar
    19     6     7   ar
    20     7     8   ar
    21     8     9   ar
    22     9    28    1
    23    28    29    1
    24    29    30   ar
    25    30    31   ar
    26    31    32   ar
    27    32    35    1
    28    35    36    1
    29    35    37    1
    30    35    38    1
    31    32    33   ar
    32    33    34   ar
    33    15    16    1
    34    16    17    1
    35    23    24   ar
    36    24    25   ar
    37    25    20   ar
    38    17    12    1
    39     9     1   ar
    40    34    29   ar
    41     8     3   ar
    42    10    11    1
@<TRIPOS>MOLECULE
*****
 38 42 0 0 0
SMALL
GASTEIGER

@<TRIPOS>ATOM
      1 C         142.5774  139.0373  166.3797 C.ar    1  UNL1        0.1981
      2 N         143.1537  138.9785  167.7633 N.ar    1  UNL1       -0.2138
      3 C         142.1514  139.5717  168.7086 C.ar    1  UNL1        0.0999
      4 C         142.1732  139.7794  170.1940 C.ar    1  UNL1        0.0207
      5 C         140.9991  140.4125  170.8800 C.ar    1  UNL1        0.0016
      6 C         139.8032  140.8379  170.0806 C.ar    1  UNL1        0.0016
      7 C         139.7815  140.6302  168.5952 C.ar    1  UNL1        0.0188
      8 C         140.9556  139.9971  167.9092 C.ar    1  UNL1        0.0801
      9 N         141.2189  139.6669  166.4699 N.ar    1  UNL1       -0.2955
     10 N         143.2428  138.5519  165.1261 N.pl3   1  UNL1       -0.3058
     11 H         143.4404  137.5941  165.0129 H       1  UNL1        0.1495
     12 N         144.3356  141.4734  161.8826 N.3     1  UNL1       -0.2723
     13 C         143.2113  140.5035  161.6706 C.3     1  UNL1        0.0738
     14 C         142.8470  139.5296  162.7517 C.3     1  UNL1        0.0369
     15 C         143.6070  139.5257  164.0449 C.3     1  UNL1        0.0745
     16 C         144.7314  140.4958  164.2569 C.3     1  UNL1        0.0369
     17 C         145.0956  141.4696  163.1757 C.3     1  UNL1        0.0738
     18 C         144.6999  142.4473  160.8014 C.3     1  UNL1        0.0768
     19 C         144.1480  142.2727  159.4176 C.3     1  UNL1        0.0437
     20 C         141.1736  145.2323  157.7917 C.ar    1  UNL1        0.0684
     21 C         141.2183  144.9453  159.2633 C.ar    1  UNL1        0.0100
     22 C         142.2098  143.9589  159.8053 C.ar    1  UNL1       -0.0035
     23 C         143.1566  143.2592  158.8756 C.ar    1  UNL1       -0.0207
     24 C         143.1118  143.5461  157.4040 C.ar    1  UNL1       -0.0035
     25 C         142.1203  144.5327  156.8620 C.ar    1  UNL1        0.0100
     26 N         139.1906  147.2053  156.7077 N.1     1  UNL1       -0.1908
     27 C         140.1821  146.2187  157.2497 C.1     1  UNL1        0.1004
     28 C         140.2872  139.9215  165.3223 C.3     1  UNL1        0.1370
     29 C         140.2485  141.2732  164.6732 C.ar    1  UNL1        0.0196
     30 C         141.2576  142.3163  165.0522 C.ar    1  UNL1        0.0006
     31 C         141.2189  143.6681  164.4032 C.ar    1  UNL1        0.0228
     32 C         140.1711  143.9768  163.3752 C.ar    1  UNL1        0.1526
     33 N         139.1620  142.9337  162.9962 N.ar    1  UNL1       -0.2401
     34 C         139.2007  141.5819  163.6452 C.ar    1  UNL1        0.0963
     35 C         140.1324  145.3285  162.7262 C.3     1  UNL1        0.4348
     36 F         140.0938  146.6803  162.0772 F       1  UNL1       -0.1644
     37 F         141.5976  145.5009  162.9978 F       1  UNL1       -0.1644
     38 F         138.6673  145.1562  162.4546 F       1  UNL1       -0.1644
@<TRIPOS>BOND
     1    26    27    3
     2    27    20    1
     3    20    21   ar
     4    21    22   ar
     5    22    23   ar
     6    23    19    1
     7    19    18    1
     8    18    12    1
     9    12    13    1
    10    13    14    1
    11    14    15    1
    12    15    10    1
    13    10     1    1
    14     1     2   ar
    15     2     3   ar
    16     3     4   ar
    17     4     5   ar
    18     5     6   ar
    19     6     7   ar
    20     7     8   ar
    21     8     9   ar
    22     9    28    1
    23    28    29    1
    24    29    30   ar
    25    30    31   ar
    26    31    32   ar
    27    32    35    1
    28    35    36    1
    29    35    37    1
    30    35    38    1
    31    32    33   ar
    32    33    34   ar
    33    15    16    1
    34    16    17    1
    35    23    24   ar
    36    24    25   ar
    37    25    20   ar
    38    17    12    1
    39     9     1   ar
    40    34    29   ar
    41     8     3   ar
    42    10    11    1
@<TRIPOS>MOLECULE
*****
 38 42 0 0 0
SMALL
GASTEIGER

@<TRIPOS>ATOM
      1 C         140.5969  144.8087  161.9097 C.ar    1  UNL1        0.1981
      2 N         141.6397  145.1968  160.9038 N.ar    1  UNL1       -0.2138
      3 C         141.2233  144.6507  159.5702 C.ar    1  UNL1        0.0999
      4 C         141.8601  144.7204  158.2139 C.ar    1  UNL1        0.0207
      5 C         141.1967  144.0645  157.0393 C.ar    1  UNL1        0.0016
      6 C         139.8965  143.3390  157.2211 C.ar    1  UNL1        0.0016
      7 C         139.2597  143.2693  158.5774 C.ar    1  UNL1        0.0188
      8 C         139.9231  143.9251  159.7519 C.ar    1  UNL1        0.0801
      9 N         139.5360  144.0228  161.1978 N.ar    1  UNL1       -0.2955
     10 N         140.6123  145.1471  163.3710 N.pl3   1  UNL1       -0.3058
     11 H         140.2395  146.0037  163.6818 H       1  UNL1        0.1495
     12 N         142.3623  142.2474  166.3339 N.3     1  UNL1       -0.2723
     13 C         143.2469  142.9069  165.3178 C.3     1  UNL1        0.0738
     14 C         142.6636  143.8735  164.3301 C.3     1  UNL1        0.0369
     15 C         141.1956  144.1806  164.3586 C.3     1  UNL1        0.0745
     16 C         140.3110  143.5210  165.3747 C.3     1  UNL1        0.0369
     17 C         140.8944  142.5545  166.3624 C.3     1  UNL1        0.0738
     18 C         142.9456  141.2808  167.3216 C.3     1  UNL1        0.0768
     19 C         142.9605  139.8126  167.0150 C.3     1  UNL1        0.0437
     20 C         143.2509  138.4077  162.7498 C.ar    1  UNL1        0.0684
     21 C         144.3265  139.2793  163.3272 C.ar    1  UNL1        0.0100
     22 C         144.2297  139.7476  164.7489 C.ar    1  UNL1       -0.0035
     23 C         143.0573  139.3443  165.5933 C.ar    1  UNL1       -0.0207
     24 C         141.9817  138.4726  165.0158 C.ar    1  UNL1       -0.0035
     25 C         142.0786  138.0043  163.5940 C.ar    1  UNL1        0.0100
     26 N         143.4445  137.4710  159.9063 N.1     1  UNL1       -0.1908
     27 C         143.3478  137.9394  161.3281 C.1     1  UNL1        0.1004
     28 C         138.3042  143.4373  161.8222 C.3     1  UNL1        0.1370
     29 C         138.3844  142.1338  162.5599 C.ar    1  UNL1        0.0196
     30 C         137.7188  141.9860  163.8961 C.ar    1  UNL1        0.0006
     31 C         137.7990  140.6825  164.6340 C.ar    1  UNL1        0.0228
     32 C         138.5447  139.5267  164.0356 C.ar    1  UNL1        0.1526
     33 N         139.2102  139.6744  162.6995 N.ar    1  UNL1       -0.2401
     34 C         139.1300  140.9779  161.9616 C.ar    1  UNL1        0.0963
     35 C         138.6248  138.2232  164.7734 C.3     1  UNL1        0.4348
     36 F         138.7049  136.9196  165.5112 F       1  UNL1       -0.1644
     37 F         138.4387  137.4812  163.4830 F       1  UNL1       -0.1644
     38 F         138.8109  138.9650  166.0638 F       1  UNL1       -0.1644
@<TRIPOS>BOND
     1    26    27    3
     2    27    20    1
     3    20    21   ar
     4    21    22   ar
     5    22    23   ar
     6    23    19    1
     7    19    18    1
     8    18    12    1
     9    12    13    1
    10    13    14    1
    11    14    15    1
    12    15    10    1
    13    10     1    1
    14     1     2   ar
    15     2     3   ar
    16     3     4   ar
    17     4     5   ar
    18     5     6   ar
    19     6     7   ar
    20     7     8   ar
    21     8     9   ar
    22     9    28    1
    23    28    29    1
    24    29    30   ar
    25    30    31   ar
    26    31    32   ar
    27    32    35    1
    28    35    36    1
    29    35    37    1
    30    35    38    1
    31    32    33   ar
    32    33    34   ar
    33    15    16    1
    34    16    17    1
    35    23    24   ar
    36    24    25   ar
    37    25    20   ar
    38    17    12    1
    39     9     1   ar
    40    34    29   ar
    41     8     3   ar
    42    10    11    1
