@<TRIPOS>MOLECULE
*****
 22 24 0 0 0
SMALL
GASTEIGER

@<TRIPOS>ATOM
      1 C         138.4077  138.8583  165.3849 C.ar    1  UNL1        0.1024
      2 C         139.2395  137.6887  164.9487 C.ar    1  UNL1        0.0184
      3 C         139.5894  137.5159  163.5003 C.ar    1  UNL1        0.0027
      4 C         139.1075  138.5127  162.4882 C.ar    1  UNL1        0.0184
      5 C         138.2757  139.6822  162.9245 C.ar    1  UNL1        0.1024
      6 N         137.9258  139.8550  164.3728 N.ar    1  UNL1       -0.2466
      7 C         138.0578  139.0311  166.8332 C.3     1  UNL1        0.2508
      8 O         139.1459  139.1404  167.8598 O.3     1  UNL1       -0.4690
      9 C         140.4498  143.1870  169.3346 C.ar    1  UNL1        0.0002
     10 C         139.7685  142.2318  170.2692 C.ar    1  UNL1        0.0031
     11 C         139.3339  140.8830  169.7776 C.ar    1  UNL1        0.0369
     12 C         139.5805  140.4893  168.3514 C.ar    1  UNL1        0.1391
     13 C         140.2618  141.4444  167.4168 C.ar    1  UNL1        0.0369
     14 C         140.6964  142.7933  167.9084 C.ar    1  UNL1        0.0031
     15 C         137.7939  140.6789  161.9124 C.3     1  UNL1        0.2508
     16 O         138.5408  141.9640  161.7107 O.3     1  UNL1       -0.4690
     17 C         138.7644  142.8912  162.8685 C.ar    1  UNL1        0.1391
     18 C         140.1594  143.2790  163.2603 C.ar    1  UNL1        0.0369
     19 C         140.3830  144.2061  164.4180 C.ar    1  UNL1        0.0031
     20 C         139.2116  144.7456  165.1840 C.ar    1  UNL1        0.0002
     21 C         137.8165  144.3578  164.7922 C.ar    1  UNL1        0.0031
     22 C         137.5930  143.4306  163.6344 C.ar    1  UNL1        0.0369
@<TRIPOS>BOND
     1     9    10   ar
     2    10    11   ar
     3    11    12   ar
     4    12     8    1
     5     8     7    1
     6     7     1    1
     7     1     2   ar
     8     2     3   ar
     9     3     4   ar
    10     4     5   ar
    11     5    15    1
    12    15    16    1
    13    16    17    1
    14    17    18   ar
    15    18    19   ar
    16    19    20   ar
    17    20    21   ar
    18    21    22   ar
    19     5     6   ar
    20    12    13   ar
    21    13    14   ar
    22    14     9   ar
    23     6     1   ar
    24    22    17   ar
@<TRIPOS>MOLECULE
*****
 22 24 0 0 0
SMALL
GASTEIGER

@<TRIPOS>ATOM
      1 C         138.2229  139.6615  163.0452 C.ar    1  UNL1        0.1024
      2 C         139.0180  138.4914  162.5465 C.ar    1  UNL1        0.0184
      3 C         139.5404  137.4721  163.5150 C.ar    1  UNL1        0.0027
      4 C         139.2677  137.6229  164.9824 C.ar    1  UNL1        0.0184
      5 C         138.4725  138.7930  165.4810 C.ar    1  UNL1        0.1024
      6 N         137.9502  139.8123  164.5125 N.ar    1  UNL1       -0.2466
      7 C         137.7005  140.6808  162.0766 C.3     1  UNL1        0.2508
      8 O         137.1243  141.9700  162.5826 O.3     1  UNL1       -0.4690
      9 C         139.8375  145.1373  164.2727 C.ar    1  UNL1        0.0002
     10 C         138.6040  144.7286  165.0219 C.ar    1  UNL1        0.0031
     11 C         137.6996  143.6729  164.4585 C.ar    1  UNL1        0.0369
     12 C         138.0287  143.0258  163.1459 C.ar    1  UNL1        0.1391
     13 C         139.2622  143.4344  162.3968 C.ar    1  UNL1        0.0369
     14 C         140.1667  144.4902  162.9601 C.ar    1  UNL1        0.0031
     15 C         138.1998  138.9437  166.9483 C.3     1  UNL1        0.2508
     16 O         139.1670  139.6907  167.8180 O.3     1  UNL1       -0.4690
     17 C         140.3457  140.3861  167.2036 C.ar    1  UNL1        0.1391
     18 C         141.6507  139.6615  167.0559 C.ar    1  UNL1        0.0369
     19 C         142.8293  140.3567  166.4416 C.ar    1  UNL1        0.0031
     20 C         142.7028  141.7767  165.9748 C.ar    1  UNL1        0.0002
     21 C         141.3978  142.5014  166.1225 C.ar    1  UNL1        0.0031
     22 C         140.2192  141.8060  166.7369 C.ar    1  UNL1        0.0369
@<TRIPOS>BOND
     1     9    10   ar
     2    10    11   ar
     3    11    12   ar
     4    12     8    1
     5     8     7    1
     6     7     1    1
     7     1     2   ar
     8     2     3   ar
     9     3     4   ar
    10     4     5   ar
    11     5    15    1
    12    15    16    1
    13    16    17    1
    14    17    18   ar
    15    18    19   ar
    16    19    20   ar
    17    20    21   ar
    18    21    22   ar
    19     5     6   ar
    20    12    13   ar
    21    13    14   ar
    22    14     9   ar
    23     6     1   ar
    24    22    17   ar
@<TRIPOS>MOLECULE
*****
 22 24 0 0 0
SMALL
GASTEIGER

@<TRIPOS>ATOM
      1 C         138.4345  138.8269  165.5088 C.ar    1  UNL1        0.1024
      2 C         139.1865  137.6222  165.0255 C.ar    1  UNL1        0.0184
      3 C         139.4453  137.4381  163.5595 C.ar    1  UNL1        0.0027
      4 C         138.9521  138.4585  162.5768 C.ar    1  UNL1        0.0184
      5 C         138.2002  139.6631  163.0602 C.ar    1  UNL1        0.1024
      6 N         137.9414  139.8472  164.5261 N.ar    1  UNL1       -0.2466
      7 C         138.1757  139.0110  166.9748 C.3     1  UNL1        0.2508
      8 O         139.2312  139.6155  167.8526 O.3     1  UNL1       -0.4690
      9 C         142.6993  141.8149  166.0128 C.ar    1  UNL1        0.0002
     10 C         142.8528  140.3796  166.4207 C.ar    1  UNL1        0.0031
     11 C         141.6967  139.6465  167.0340 C.ar    1  UNL1        0.0369
     12 C         140.3872  140.3486  167.2393 C.ar    1  UNL1        0.1391
     13 C         140.2338  141.7839  166.8314 C.ar    1  UNL1        0.0369
     14 C         141.3899  142.5170  166.2181 C.ar    1  UNL1        0.0031
     15 C         137.7071  140.6834  162.0775 C.3     1  UNL1        0.2508
     16 O         137.1316  141.9793  162.5670 O.3     1  UNL1       -0.4690
     17 C         138.0329  143.0282  163.1481 C.ar    1  UNL1        0.1391
     18 C         139.2708  143.4455  162.4109 C.ar    1  UNL1        0.0369
     19 C         140.1721  144.4943  162.9919 C.ar    1  UNL1        0.0031
     20 C         139.8355  145.1258  164.3102 C.ar    1  UNL1        0.0002
     21 C         138.5977  144.7085  165.0475 C.ar    1  UNL1        0.0031
     22 C         137.6964  143.6596  164.4664 C.ar    1  UNL1        0.0369
@<TRIPOS>BOND
     1     9    10   ar
     2    10    11   ar
     3    11    12   ar
     4    12     8    1
     5     8     7    1
     6     7     1    1
     7     1     2   ar
     8     2     3   ar
     9     3     4   ar
    10     4     5   ar
    11     5    15    1
    12    15    16    1
    13    16    17    1
    14    17    18   ar
    15    18    19   ar
    16    19    20   ar
    17    20    21   ar
    18    21    22   ar
    19     5     6   ar
    20    12    13   ar
    21    13    14   ar
    22    14     9   ar
    23     6     1   ar
    24    22    17   ar
@<TRIPOS>MOLECULE
*****
 22 24 0 0 0
SMALL
GASTEIGER

@<TRIPOS>ATOM
      1 C         141.2847  139.3824  164.5072 C.ar    1  UNL1        0.1024
      2 C         141.9094  138.7801  165.7308 C.ar    1  UNL1        0.0184
      3 C         143.3973  138.6053  165.8046 C.ar    1  UNL1        0.0027
      4 C         144.2606  139.0328  164.6548 C.ar    1  UNL1        0.0184
      5 C         143.6360  139.6350  163.4312 C.ar    1  UNL1        0.1024
      6 N         142.1480  139.8098  163.3575 N.ar    1  UNL1       -0.2466
      7 C         139.7968  139.5572  164.4335 C.3     1  UNL1        0.2508
      8 O         139.2081  140.6029  163.5336 O.3     1  UNL1       -0.4690
      9 C         138.9661  144.8799  164.9117 C.ar    1  UNL1        0.0002
     10 C         140.2975  144.2717  164.5839 C.ar    1  UNL1        0.0031
     11 C         140.3782  142.8461  164.1246 C.ar    1  UNL1        0.0369
     12 C         139.1275  142.0286  163.9930 C.ar    1  UNL1        0.1391
     13 C         137.7961  142.6367  164.3207 C.ar    1  UNL1        0.0369
     14 C         137.7154  144.0624  164.7801 C.ar    1  UNL1        0.0031
     15 C         144.4992  140.0625  162.2815 C.3     1  UNL1        0.2508
     16 O         145.3851  141.2655  162.4154 O.3     1  UNL1       -0.4690
     17 C         144.8742  142.5012  163.0951 C.ar    1  UNL1        0.1391
     18 C         144.9878  142.6395  164.5844 C.ar    1  UNL1        0.0369
     19 C         144.4769  143.8751  165.2641 C.ar    1  UNL1        0.0031
     20 C         143.8523  144.9727  164.4545 C.ar    1  UNL1        0.0002
     21 C         143.7386  144.8344  162.9652 C.ar    1  UNL1        0.0031
     22 C         144.2496  143.5987  162.2855 C.ar    1  UNL1        0.0369
@<TRIPOS>BOND
     1     9    10   ar
     2    10    11   ar
     3    11    12   ar
     4    12     8    1
     5     8     7    1
     6     7     1    1
     7     1     2   ar
     8     2     3   ar
     9     3     4   ar
    10     4     5   ar
    11     5    15    1
    12    15    16    1
    13    16    17    1
    14    17    18   ar
    15    18    19   ar
    16    19    20   ar
    17    20    21   ar
    18    21    22   ar
    19     5     6   ar
    20    12    13   ar
    21    13    14   ar
    22    14     9   ar
    23     6     1   ar
    24    22    17   ar
@<TRIPOS>MOLECULE
*****
 22 24 0 0 0
SMALL
GASTEIGER

@<TRIPOS>ATOM
      1 C         143.4685  139.5744  163.2269 C.ar    1  UNL1        0.1024
      2 C         144.0367  138.9710  164.4773 C.ar    1  UNL1        0.0184
      3 C         143.1196  138.5064  165.5695 C.ar    1  UNL1        0.0027
      4 C         141.6344  138.6451  165.4115 C.ar    1  UNL1        0.0184
      5 C         141.0663  139.2484  164.1612 C.ar    1  UNL1        0.1024
      6 N         141.9834  139.7131  163.0689 N.ar    1  UNL1       -0.2466
      7 C         144.3856  140.0390  162.1347 C.3     1  UNL1        0.2508
      8 O         145.3158  141.1908  162.3756 O.3     1  UNL1       -0.4690
      9 C         143.8120  144.9085  164.4170 C.ar    1  UNL1        0.0002
     10 C         143.7056  144.7760  162.9267 C.ar    1  UNL1        0.0031
     11 C         144.2069  143.5368  162.2462 C.ar    1  UNL1        0.0369
     12 C         144.8145  142.4300  163.0561 C.ar    1  UNL1        0.1391
     13 C         144.9208  142.5625  164.5464 C.ar    1  UNL1        0.0369
     14 C         144.4195  143.8018  165.2269 C.ar    1  UNL1        0.0031
     15 C         139.5811  139.3871  164.0032 C.3     1  UNL1        0.2508
     16 O         138.7957  140.2059  164.9844 O.3     1  UNL1       -0.4690
     17 C         138.8771  141.7033  164.9466 C.ar    1  UNL1        0.1391
     18 C         140.1145  142.3995  165.4302 C.ar    1  UNL1        0.0369
     19 C         140.1960  143.8968  165.3925 C.ar    1  UNL1        0.0031
     20 C         139.0399  144.6979  164.8710 C.ar    1  UNL1        0.0002
     21 C         137.8024  144.0016  164.3874 C.ar    1  UNL1        0.0031
     22 C         137.7211  142.5043  164.4252 C.ar    1  UNL1        0.0369
@<TRIPOS>BOND
     1     9    10   ar
     2    10    11   ar
     3    11    12   ar
     4    12     8    1
     5     8     7    1
     6     7     1    1
     7     1     2   ar
     8     2     3   ar
     9     3     4   ar
    10     4     5   ar
    11     5    15    1
    12    15    16    1
    13    16    17    1
    14    17    18   ar
    15    18    19   ar
    16    19    20   ar
    17    20    21   ar
    18    21    22   ar
    19     5     6   ar
    20    12    13   ar
    21    13    14   ar
    22    14     9   ar
    23     6     1   ar
    24    22    17   ar
@<TRIPOS>MOLECULE
*****
 22 24 0 0 0
SMALL
GASTEIGER

@<TRIPOS>ATOM
      1 C         139.3012  138.4881  163.6289 C.ar    1  UNL1        0.1024
      2 C         138.8726  137.6929  164.8265 C.ar    1  UNL1        0.0184
      3 C         138.3093  138.3917  166.0283 C.ar    1  UNL1        0.0027
      4 C         138.1747  139.8857  166.0326 C.ar    1  UNL1        0.0184
      5 C         138.6033  140.6808  164.8351 C.ar    1  UNL1        0.1024
      6 N         139.1666  139.9820  163.6333 N.ar    1  UNL1       -0.2466
      7 C         139.8645  137.7892  162.4271 C.3     1  UNL1        0.2508
      8 O         141.2548  137.2278  162.4691 O.3     1  UNL1       -0.4690
      9 C         144.6047  139.6454  164.2533 C.ar    1  UNL1        0.0002
     10 C         144.4029  139.6258  162.7671 C.ar    1  UNL1        0.0031
     11 C         143.2863  138.8199  162.1724 C.ar    1  UNL1        0.0369
     12 C         142.3714  138.0337  163.0638 C.ar    1  UNL1        0.1391
     13 C         142.5732  138.0532  164.5500 C.ar    1  UNL1        0.0369
     14 C         143.6899  138.8591  165.1448 C.ar    1  UNL1        0.0031
     15 C         138.4686  142.1747  164.8394 C.3     1  UNL1        0.2508
     16 O         139.6946  143.0381  164.8790 O.3     1  UNL1       -0.4690
     17 C         140.7732  142.7634  165.8847 C.ar    1  UNL1        0.1391
     18 C         142.1870  142.5532  165.4295 C.ar    1  UNL1        0.0369
     19 C         143.2656  142.2785  166.4351 C.ar    1  UNL1        0.0031
     20 C         142.9304  142.2141  167.8958 C.ar    1  UNL1        0.0002
     21 C         141.5167  142.4243  168.3509 C.ar    1  UNL1        0.0031
     22 C         140.4381  142.6990  167.3453 C.ar    1  UNL1        0.0369
@<TRIPOS>BOND
     1     9    10   ar
     2    10    11   ar
     3    11    12   ar
     4    12     8    1
     5     8     7    1
     6     7     1    1
     7     1     2   ar
     8     2     3   ar
     9     3     4   ar
    10     4     5   ar
    11     5    15    1
    12    15    16    1
    13    16    17    1
    14    17    18   ar
    15    18    19   ar
    16    19    20   ar
    17    20    21   ar
    18    21    22   ar
    19     5     6   ar
    20    12    13   ar
    21    13    14   ar
    22    14     9   ar
    23     6     1   ar
    24    22    17   ar
@<TRIPOS>MOLECULE
*****
 22 24 0 0 0
SMALL
GASTEIGER

@<TRIPOS>ATOM
      1 C         140.5213  144.4543  164.3698 C.ar    1  UNL1        0.1024
      2 C         141.6338  145.2358  163.7359 C.ar    1  UNL1        0.0184
      3 C         143.0513  144.7625  163.8654 C.ar    1  UNL1        0.0027
      4 C         143.3563  143.5078  164.6288 C.ar    1  UNL1        0.0184
      5 C         142.2439  142.7264  165.2626 C.ar    1  UNL1        0.1024
      6 N         140.8264  143.1996  165.1332 N.ar    1  UNL1       -0.2466
      7 C         139.1038  144.9275  164.2403 C.3     1  UNL1        0.2508
      8 O         138.2890  144.5365  163.0432 O.3     1  UNL1       -0.4690
      9 C         137.8069  140.1929  161.9708 C.ar    1  UNL1        0.0002
     10 C         137.5987  140.6435  163.3862 C.ar    1  UNL1        0.0031
     11 C         137.7593  142.0914  163.7437 C.ar    1  UNL1        0.0369
     12 C         138.1283  143.0887  162.6857 C.ar    1  UNL1        0.1391
     13 C         138.3365  142.6380  161.2703 C.ar    1  UNL1        0.0369
     14 C         138.1759  141.1901  160.9128 C.ar    1  UNL1        0.0031
     15 C         142.5489  141.4718  166.0260 C.3     1  UNL1        0.2508
     16 O         141.5260  140.8937  166.9584 O.3     1  UNL1       -0.4690
     17 C         140.5523  139.8670  166.4603 C.ar    1  UNL1        0.1391
     18 C         140.9455  138.9363  165.3516 C.ar    1  UNL1        0.0369
     19 C         139.9719  137.9097  164.8535 C.ar    1  UNL1        0.0031
     20 C         138.6051  137.8138  165.4640 C.ar    1  UNL1        0.0002
     21 C         138.2119  138.7445  166.5727 C.ar    1  UNL1        0.0031
     22 C         139.1856  139.7712  167.0708 C.ar    1  UNL1        0.0369
@<TRIPOS>BOND
     1     9    10   ar
     2    10    11   ar
     3    11    12   ar
     4    12     8    1
     5     8     7    1
     6     7     1    1
     7     1     2   ar
     8     2     3   ar
     9     3     4   ar
    10     4     5   ar
    11     5    15    1
    12    15    16    1
    13    16    17    1
    14    17    18   ar
    15    18    19   ar
    16    19    20   ar
    17    20    21   ar
    18    21    22   ar
    19     5     6   ar
    20    12    13   ar
    21    13    14   ar
    22    14     9   ar
    23     6     1   ar
    24    22    17   ar
@<TRIPOS>MOLECULE
*****
 22 24 0 0 0
SMALL
GASTEIGER

@<TRIPOS>ATOM
      1 C         142.2133  142.6486  165.1633 C.ar    1  UNL1        0.1024
      2 C         143.2181  143.4272  164.3667 C.ar    1  UNL1        0.0184
      3 C         142.8036  144.6831  163.6590 C.ar    1  UNL1        0.0027
      4 C         141.3843  145.1605  163.7479 C.ar    1  UNL1        0.0184
      5 C         140.3796  144.3819  164.5443 C.ar    1  UNL1        0.1024
      6 N         140.7941  143.1260  165.2521 N.ar    1  UNL1       -0.2466
      7 C         142.6279  141.3927  165.8710 C.3     1  UNL1        0.2508
      8 O         141.7015  140.7478  166.8588 O.3     1  UNL1       -0.4690
      9 C         138.5921  137.8175  165.4462 C.ar    1  UNL1        0.0002
     10 C         139.9559  137.8233  164.8216 C.ar    1  UNL1        0.0031
     11 C         140.9923  138.8000  165.2925 C.ar    1  UNL1        0.0369
     12 C         140.6650  139.7710  166.3879 C.ar    1  UNL1        0.1391
     13 C         139.3013  139.7653  167.0124 C.ar    1  UNL1        0.0369
     14 C         138.2648  138.7885  166.5416 C.ar    1  UNL1        0.0031
     15 C         138.9604  144.8593  164.6331 C.3     1  UNL1        0.2508
     16 O         137.9765  144.4899  163.5628 O.3     1  UNL1       -0.4690
     17 C         137.9821  143.1059  162.9842 C.ar    1  UNL1        0.1391
     18 C         137.6398  141.9297  163.8497 C.ar    1  UNL1        0.0369
     19 C         137.6454  140.5458  163.2711 C.ar    1  UNL1        0.0031
     20 C         137.9934  140.3382  161.8269 C.ar    1  UNL1        0.0002
     21 C         138.3358  141.5144  160.9613 C.ar    1  UNL1        0.0031
     22 C         138.3301  142.8983  161.5400 C.ar    1  UNL1        0.0369
@<TRIPOS>BOND
     1     9    10   ar
     2    10    11   ar
     3    11    12   ar
     4    12     8    1
     5     8     7    1
     6     7     1    1
     7     1     2   ar
     8     2     3   ar
     9     3     4   ar
    10     4     5   ar
    11     5    15    1
    12    15    16    1
    13    16    17    1
    14    17    18   ar
    15    18    19   ar
    16    19    20   ar
    17    20    21   ar
    18    21    22   ar
    19     5     6   ar
    20    12    13   ar
    21    13    14   ar
    22    14     9   ar
    23     6     1   ar
    24    22    17   ar
@<TRIPOS>MOLECULE
*****
 22 24 0 0 0
SMALL
GASTEIGER

@<TRIPOS>ATOM
      1 C         143.3690  140.1241  163.1930 C.ar    1  UNL1        0.1024
      2 C         144.7893  140.0633  163.6716 C.ar    1  UNL1        0.0184
      3 C         145.5786  141.3277  163.8404 C.ar    1  UNL1        0.0027
      4 C         144.9476  142.6528  163.5306 C.ar    1  UNL1        0.0184
      5 C         143.5273  142.7135  163.0521 C.ar    1  UNL1        0.1024
      6 N         142.7380  141.4492  162.8832 N.ar    1  UNL1       -0.2466
      7 C         142.5797  138.8598  163.0242 C.3     1  UNL1        0.2508
      8 O         141.1184  138.9266  162.6922 O.3     1  UNL1       -0.4690
      9 C         138.0739  139.2438  165.9908 C.ar    1  UNL1        0.0002
     10 C         138.6307  137.9040  165.6103 C.ar    1  UNL1        0.0031
     11 C         139.6455  137.7982  164.5108 C.ar    1  UNL1        0.0369
     12 C         140.1036  139.0323  163.7918 C.ar    1  UNL1        0.1391
     13 C         139.5469  140.3722  164.1723 C.ar    1  UNL1        0.0369
     14 C         138.5321  140.4779  165.2718 C.ar    1  UNL1        0.0031
     15 C         142.8963  144.0386  162.7423 C.3     1  UNL1        0.2508
     16 O         141.5530  144.0924  162.0770 O.3     1  UNL1       -0.4690
     17 C         140.3040  144.0929  162.9078 C.ar    1  UNL1        0.1391
     18 C         140.3577  144.5282  164.3422 C.ar    1  UNL1        0.0369
     19 C         139.1088  144.5287  165.1730 C.ar    1  UNL1        0.0031
     20 C         137.8062  144.0940  164.5694 C.ar    1  UNL1        0.0002
     21 C         137.7526  143.6587  163.1349 C.ar    1  UNL1        0.0031
     22 C         139.0015  143.6582  162.3041 C.ar    1  UNL1        0.0369
@<TRIPOS>BOND
     1     9    10   ar
     2    10    11   ar
     3    11    12   ar
     4    12     8    1
     5     8     7    1
     6     7     1    1
     7     1     2   ar
     8     2     3   ar
     9     3     4   ar
    10     4     5   ar
    11     5    15    1
    12    15    16    1
    13    16    17    1
    14    17    18   ar
    15    18    19   ar
    16    19    20   ar
    17    20    21   ar
    18    21    22   ar
    19     5     6   ar
    20    12    13   ar
    21    13    14   ar
    22    14     9   ar
    23     6     1   ar
    24    22    17   ar
