@<TRIPOS>MOLECULE
*****
 34 37 0 0 0
SMALL
GASTEIGER

@<TRIPOS>ATOM
      1 C         142.2794  143.4405  162.9249 C.ar    1  UNL1        0.1535
      2 C         141.8145  142.0251  162.7506 C.ar    1  UNL1        0.0369
      3 C         142.1949  140.9813  163.7585 C.ar    1  UNL1        0.0930
      4 CL        141.7300  139.5658  163.5842 Cl      1  UNL1       -0.0790
      5 C         143.0402  141.3529  164.9405 C.ar    1  UNL1        0.1514
      6 C         143.5051  142.7684  165.1148 C.ar    1  UNL1        0.0688
      7 C         143.1247  143.8121  164.1069 C.ar    1  UNL1        0.1620
      8 F         143.5896  145.2276  164.2812 F       1  UNL1       -0.2026
      9 O         140.6760  144.8142  162.7203 O.2     1  UNL1       -0.1498
     10 S         141.8990  144.4843  161.9170 S.O2    1  UNL1        0.0769
     11 O         143.1220  144.1544  161.1136 O.2     1  UNL1       -0.1498
     12 N         141.5186  145.5282  160.9092 N.pl3   1  UNL1       -0.1984
     13 H         141.4260  146.4685  161.1855 H       1  UNL1        0.1753
     14 C         141.2792  145.1392  159.4804 C.ar    1  UNL1        0.1542
     15 C         140.2565  144.1557  158.9938 C.ar    1  UNL1        0.0725
     16 S         140.3657  144.0741  157.5000 S.2     1  UNL1       -0.0625
     17 C         141.4559  145.0073  157.0633 C.ar    1  UNL1        0.1360
     18 N         142.0205  145.6656  158.2873 N.ar    1  UNL1       -0.2203
     19 O         143.4206  140.3091  165.9484 O.3     1  UNL1       -0.4727
     20 C         142.5204  140.0299  167.1153 C.3     1  UNL1        0.2254
     21 C         142.1790  141.1279  168.0787 C.3     1  UNL1        0.1208
     22 N         143.1044  141.4416  169.2168 N.3     1  UNL1       -0.2918
     23 C         142.7631  142.5395  170.1801 C.3     1  UNL1        0.0736
     24 C         141.4963  143.3236  170.0055 C.3     1  UNL1        0.0428
     25 C         140.5709  143.0098  168.8674 C.2     1  UNL1       -0.0275
     26 C         140.9123  141.9119  167.9041 C.2     1  UNL1       -0.0086
     27 H         144.0066  141.6809  168.8053 H       1  UNL1        0.1236
     28 C         139.9868  141.5981  166.7660 C.ar    1  UNL1       -0.0028
     29 C         139.6721  142.6495  165.7435 C.ar    1  UNL1        0.0020
     30 C         138.7468  142.3357  164.6054 C.ar    1  UNL1        0.0296
     31 C         138.1361  140.9704  164.4898 C.ar    1  UNL1        0.1401
     32 F         137.2107  140.6567  163.3518 F       1  UNL1       -0.2042
     33 C         138.4508  139.9191  165.5124 C.ar    1  UNL1        0.0296
     34 C         139.3762  140.2329  166.6505 C.ar    1  UNL1        0.0020
@<TRIPOS>BOND
     1     9    10    2
     2    10    11    2
     3    10    12    1
     4    12    14    1
     5    14    15   ar
     6    15    16   ar
     7    16    17   ar
     8    17    18   ar
     9    10     1    1
    10     1     2   ar
    11     2     3   ar
    12     3     4    1
    13     3     5   ar
    14     5    19    1
    15    19    20    1
    16    20    21    1
    17    21    22    1
    18    22    23    1
    19    23    24    1
    20    24    25    1
    21    25    26    2
    22    26    28    1
    23    28    29   ar
    24    29    30   ar
    25    30    31   ar
    26    31    32    1
    27    31    33   ar
    28    33    34   ar
    29     5     6   ar
    30     6     7   ar
    31     7     8    1
    32    18    14   ar
    33     7     1   ar
    34    26    21    1
    35    34    28   ar
    36    12    13    1
    37    22    27    1
@<TRIPOS>MOLECULE
*****
 34 37 0 0 0
SMALL
GASTEIGER

@<TRIPOS>ATOM
      1 C         141.9749  143.7413  162.4700 C.ar    1  UNL1        0.1535
      2 C         142.9934  144.1977  163.4720 C.ar    1  UNL1        0.0369
      3 C         143.5125  143.2401  164.5032 C.ar    1  UNL1        0.0930
      4 CL        144.5312  143.6965  165.5053 Cl      1  UNL1       -0.0790
      5 C         143.0131  141.8260  164.5324 C.ar    1  UNL1        0.1514
      6 C         141.9945  141.3695  163.5304 C.ar    1  UNL1        0.0688
      7 C         141.4754  142.3272  162.4992 C.ar    1  UNL1        0.1620
      8 F         140.4567  141.8707  161.4971 F       1  UNL1       -0.2026
      9 O         140.3495  145.1006  162.3686 O.2     1  UNL1       -0.1498
     10 S         141.4557  144.6989  161.4387 S.O2    1  UNL1        0.0769
     11 O         142.5619  144.2972  160.5087 O.2     1  UNL1       -0.1498
     12 N         140.9365  145.6565  160.4075 N.pl3   1  UNL1       -0.1984
     13 H         140.9411  146.6243  160.5879 H       1  UNL1        0.1753
     14 C         140.4103  145.1395  159.1013 C.ar    1  UNL1        0.1542
     15 C         140.6436  145.7523  157.7523 C.ar    1  UNL1        0.0725
     16 S         139.9360  144.9105  156.7322 S.2     1  UNL1       -0.0625
     17 C         139.2653  143.7774  157.4508 C.ar    1  UNL1        0.1360
     18 N         139.5585  143.9190  158.9151 N.ar    1  UNL1       -0.2203
     19 O         143.5322  140.8684  165.5637 O.3     1  UNL1       -0.4727
     20 C         142.6626  139.7480  166.0520 C.3     1  UNL1        0.2254
     21 C         142.1786  139.7383  167.4718 C.3     1  UNL1        0.1208
     22 N         142.9435  138.9855  168.5197 N.3     1  UNL1       -0.2918
     23 C         142.4595  138.9758  169.9395 C.3     1  UNL1        0.0736
     24 C         141.2107  139.7190  170.3112 C.3     1  UNL1        0.0428
     25 C         140.4459  140.4718  169.2633 C.2     1  UNL1       -0.0275
     26 C         140.9299  140.4815  167.8436 C.2     1  UNL1       -0.0086
     27 H         143.8863  139.3746  168.5327 H       1  UNL1        0.1236
     28 C         140.1650  141.2343  166.7956 C.ar    1  UNL1       -0.0028
     29 C         140.3768  142.7098  166.6274 C.ar    1  UNL1        0.0020
     30 C         139.6120  143.4626  165.5795 C.ar    1  UNL1        0.0296
     31 C         138.6354  142.7401  164.6996 C.ar    1  UNL1        0.1401
     32 F         137.8706  143.4929  163.6516 F       1  UNL1       -0.2042
     33 C         138.4236  141.2646  164.8677 C.ar    1  UNL1        0.0296
     34 C         139.1884  140.5118  165.9157 C.ar    1  UNL1        0.0020
@<TRIPOS>BOND
     1     9    10    2
     2    10    11    2
     3    10    12    1
     4    12    14    1
     5    14    15   ar
     6    15    16   ar
     7    16    17   ar
     8    17    18   ar
     9    10     1    1
    10     1     2   ar
    11     2     3   ar
    12     3     4    1
    13     3     5   ar
    14     5    19    1
    15    19    20    1
    16    20    21    1
    17    21    22    1
    18    22    23    1
    19    23    24    1
    20    24    25    1
    21    25    26    2
    22    26    28    1
    23    28    29   ar
    24    29    30   ar
    25    30    31   ar
    26    31    32    1
    27    31    33   ar
    28    33    34   ar
    29     5     6   ar
    30     6     7   ar
    31     7     8    1
    32    18    14   ar
    33     7     1   ar
    34    26    21    1
    35    34    28   ar
    36    12    13    1
    37    22    27    1
@<TRIPOS>MOLECULE
*****
 34 37 0 0 0
SMALL
GASTEIGER

@<TRIPOS>ATOM
      1 C         139.6751  143.3489  162.5514 C.ar    1  UNL1        0.1535
      2 C         139.3343  142.0257  161.9327 C.ar    1  UNL1        0.0369
      3 C         138.7322  140.9382  162.7721 C.ar    1  UNL1        0.0930
      4 CL        138.3913  139.6149  162.1534 Cl      1  UNL1       -0.0790
      5 C         138.4709  141.1738  164.2303 C.ar    1  UNL1        0.1514
      6 C         138.8118  142.4970  164.8490 C.ar    1  UNL1        0.0688
      7 C         139.4139  143.5846  164.0096 C.ar    1  UNL1        0.1620
      8 F         139.7548  144.9079  164.6283 F       1  UNL1       -0.2026
      9 O         141.6054  143.7414  161.7641 O.2     1  UNL1       -0.1498
     10 S         140.2773  144.4366  161.7120 S.O2    1  UNL1        0.0769
     11 O         138.9491  145.1317  161.6599 O.2     1  UNL1       -0.1498
     12 N         140.8794  145.5241  160.8727 N.pl3   1  UNL1       -0.1984
     13 H         141.1732  146.3646  161.2928 H       1  UNL1        0.1753
     14 C         141.0340  145.3311  159.3931 C.ar    1  UNL1        0.1542
     15 C         140.0718  144.6155  158.4920 C.ar    1  UNL1        0.0725
     16 S         140.6210  144.6620  157.0970 S.2     1  UNL1       -0.0625
     17 C         141.9228  145.4063  157.1359 C.ar    1  UNL1        0.1360
     18 N         142.1780  145.8199  158.5551 N.ar    1  UNL1       -0.2203
     19 O         137.8688  140.0862  165.0697 O.3     1  UNL1       -0.4727
     20 C         138.6929  139.4100  166.1249 C.3     1  UNL1        0.2254
     21 C         140.1573  139.1769  165.8981 C.3     1  UNL1        0.1208
     22 N         140.6106  138.2886  164.7777 N.3     1  UNL1       -0.2918
     23 C         142.0749  138.0556  164.5509 C.3     1  UNL1        0.0736
     24 C         143.0859  138.7109  165.4445 C.3     1  UNL1        0.0428
     25 C         142.6326  139.5992  166.5649 C.2     1  UNL1       -0.0275
     26 C         141.1683  139.8323  166.7916 C.2     1  UNL1       -0.0086
     27 H         140.2392  138.6886  163.9160 H       1  UNL1        0.1236
     28 C         140.7148  140.7206  167.9121 C.ar    1  UNL1       -0.0028
     29 C         140.0664  140.1247  169.1263 C.ar    1  UNL1        0.0020
     30 C         139.6129  141.0129  170.2467 C.ar    1  UNL1        0.0296
     31 C         139.8080  142.4973  170.1529 C.ar    1  UNL1        0.1401
     32 F         139.3546  143.3856  171.2733 F       1  UNL1       -0.2042
     33 C         140.4565  143.0933  168.9387 C.ar    1  UNL1        0.0296
     34 C         140.9099  142.2049  167.8183 C.ar    1  UNL1        0.0020
@<TRIPOS>BOND
     1     9    10    2
     2    10    11    2
     3    10    12    1
     4    12    14    1
     5    14    15   ar
     6    15    16   ar
     7    16    17   ar
     8    17    18   ar
     9    10     1    1
    10     1     2   ar
    11     2     3   ar
    12     3     4    1
    13     3     5   ar
    14     5    19    1
    15    19    20    1
    16    20    21    1
    17    21    22    1
    18    22    23    1
    19    23    24    1
    20    24    25    1
    21    25    26    2
    22    26    28    1
    23    28    29   ar
    24    29    30   ar
    25    30    31   ar
    26    31    32    1
    27    31    33   ar
    28    33    34   ar
    29     5     6   ar
    30     6     7   ar
    31     7     8    1
    32    18    14   ar
    33     7     1   ar
    34    26    21    1
    35    34    28   ar
    36    12    13    1
    37    22    27    1
@<TRIPOS>MOLECULE
*****
 34 37 0 0 0
SMALL
GASTEIGER

@<TRIPOS>ATOM
      1 C         140.6978  144.0534  162.3399 C.ar    1  UNL1        0.1535
      2 C         139.9825  144.8002  163.4264 C.ar    1  UNL1        0.0369
      3 C         139.5137  144.0739  164.6523 C.ar    1  UNL1        0.0930
      4 CL        138.7983  144.8208  165.7389 Cl      1  UNL1       -0.0790
      5 C         139.7602  142.6009  164.7917 C.ar    1  UNL1        0.1514
      6 C         140.4755  141.8541  163.7052 C.ar    1  UNL1        0.0688
      7 C         140.9443  142.5803  162.4793 C.ar    1  UNL1        0.1620
      8 F         141.6597  141.8335  161.3927 F       1  UNL1       -0.2026
      9 O         142.5892  144.6132  161.5595 O.2     1  UNL1       -0.1498
     10 S         141.1666  144.7796  161.1140 S.O2    1  UNL1        0.0769
     11 O         139.7441  144.9460  160.6685 O.2     1  UNL1       -0.1498
     12 N         141.6355  145.5057  159.8881 N.pl3   1  UNL1       -0.1984
     13 H         142.2686  146.2550  159.9718 H       1  UNL1        0.1753
     14 C         141.1398  145.0903  158.5347 C.ar    1  UNL1        0.1542
     15 C         140.4460  145.9736  157.5405 C.ar    1  UNL1        0.0725
     16 S         140.1283  145.1478  156.3292 S.2     1  UNL1       -0.0625
     17 C         140.6257  143.7541  156.5748 C.ar    1  UNL1        0.1360
     18 N         141.2509  143.7186  157.9380 N.ar    1  UNL1       -0.2203
     19 O         139.2913  141.8747  166.0176 O.3     1  UNL1       -0.4727
     20 C         139.8852  140.5443  166.3743 C.3     1  UNL1        0.2254
     21 C         140.6251  140.3759  167.6683 C.3     1  UNL1        0.1208
     22 N         139.8946  139.9185  168.8959 N.3     1  UNL1       -0.2918
     23 C         140.6345  139.7501  170.1898 C.3     1  UNL1        0.0736
     24 C         142.1049  140.0391  170.2560 C.3     1  UNL1        0.0428
     25 C         142.8354  140.4965  169.0284 C.2     1  UNL1       -0.0275
     26 C         142.0955  140.6649  167.7345 C.2     1  UNL1       -0.0086
     27 H         139.4819  139.0128  168.6727 H       1  UNL1        0.1236
     28 C         142.8260  141.1223  166.5068 C.ar    1  UNL1       -0.0028
     29 C         143.0897  142.5831  166.2916 C.ar    1  UNL1        0.0020
     30 C         143.8201  143.0406  165.0640 C.ar    1  UNL1        0.0296
     31 C         144.2870  142.0371  164.0514 C.ar    1  UNL1        0.1401
     32 F         145.0174  142.4945  162.8238 F       1  UNL1       -0.2042
     33 C         144.0233  140.5762  164.2666 C.ar    1  UNL1        0.0296
     34 C         143.2928  140.1188  165.4943 C.ar    1  UNL1        0.0020
@<TRIPOS>BOND
     1     9    10    2
     2    10    11    2
     3    10    12    1
     4    12    14    1
     5    14    15   ar
     6    15    16   ar
     7    16    17   ar
     8    17    18   ar
     9    10     1    1
    10     1     2   ar
    11     2     3   ar
    12     3     4    1
    13     3     5   ar
    14     5    19    1
    15    19    20    1
    16    20    21    1
    17    21    22    1
    18    22    23    1
    19    23    24    1
    20    24    25    1
    21    25    26    2
    22    26    28    1
    23    28    29   ar
    24    29    30   ar
    25    30    31   ar
    26    31    32    1
    27    31    33   ar
    28    33    34   ar
    29     5     6   ar
    30     6     7   ar
    31     7     8    1
    32    18    14   ar
    33     7     1   ar
    34    26    21    1
    35    34    28   ar
    36    12    13    1
    37    22    27    1
@<TRIPOS>MOLECULE
*****
 34 37 0 0 0
SMALL
GASTEIGER

@<TRIPOS>ATOM
      1 C         141.7275  138.4434  161.4671 C.ar    1  UNL1        0.1535
      2 C         140.2609  138.3741  161.1603 C.ar    1  UNL1        0.0369
      3 C         139.2778  138.0915  162.2574 C.ar    1  UNL1        0.0930
      4 CL        137.8111  138.0221  161.9506 Cl      1  UNL1       -0.0790
      5 C         139.7613  137.8783  163.6612 C.ar    1  UNL1        0.1514
      6 C         141.2280  137.9477  163.9680 C.ar    1  UNL1        0.0688
      7 C         142.2111  138.2302  162.8709 C.ar    1  UNL1        0.1620
      8 F         143.6778  138.2996  163.1776 F       1  UNL1       -0.2026
      9 O         142.4547  140.1964  160.5193 O.2     1  UNL1       -0.1498
     10 S         142.7107  138.7260  160.3700 S.O2    1  UNL1        0.0769
     11 O         142.9668  137.2556  160.2206 O.2     1  UNL1       -0.1498
     12 N         143.6939  139.0086  159.2729 N.pl3   1  UNL1       -0.1984
     13 H         144.6462  139.1375  159.4865 H       1  UNL1        0.1753
     14 C         143.2260  139.0950  157.8503 C.ar    1  UNL1        0.1542
     15 C         141.8163  138.9083  157.3729 C.ar    1  UNL1        0.0725
     16 S         141.8047  139.0811  155.8830 S.2     1  UNL1       -0.0625
     17 C         143.2073  139.3746  155.4395 C.ar    1  UNL1        0.1360
     18 N         144.0858  139.3832  156.6554 N.ar    1  UNL1       -0.2203
     19 O         138.7781  137.5957  164.7583 O.3     1  UNL1       -0.4727
     20 C         138.4840  138.6439  165.7901 C.3     1  UNL1        0.2254
     21 C         138.5615  140.0971  165.4263 C.3     1  UNL1        0.1208
     22 N         137.6816  140.6470  164.3431 N.3     1  UNL1       -0.2918
     23 C         137.7590  142.1001  163.9794 C.3     1  UNL1        0.0736
     24 C         138.7164  143.0033  164.6988 C.3     1  UNL1        0.0428
     25 C         139.5963  142.4535  165.7820 C.2     1  UNL1       -0.0275
     26 C         139.5189  141.0003  166.1457 C.2     1  UNL1       -0.0086
     27 H         136.7184  140.4650  164.6254 H       1  UNL1        0.1236
     28 C         140.3988  140.4504  167.2290 C.ar    1  UNL1       -0.0028
     29 C         139.8997  140.3899  168.6422 C.ar    1  UNL1        0.0020
     30 C         140.7796  139.8399  169.7254 C.ar    1  UNL1        0.0296
     31 C         142.1586  139.3505  169.3954 C.ar    1  UNL1        0.1401
     32 F         143.0385  138.8006  170.4786 F       1  UNL1       -0.2042
     33 C         142.6577  139.4110  167.9822 C.ar    1  UNL1        0.0296
     34 C         141.7777  139.9610  166.8989 C.ar    1  UNL1        0.0020
@<TRIPOS>BOND
     1     9    10    2
     2    10    11    2
     3    10    12    1
     4    12    14    1
     5    14    15   ar
     6    15    16   ar
     7    16    17   ar
     8    17    18   ar
     9    10     1    1
    10     1     2   ar
    11     2     3   ar
    12     3     4    1
    13     3     5   ar
    14     5    19    1
    15    19    20    1
    16    20    21    1
    17    21    22    1
    18    22    23    1
    19    23    24    1
    20    24    25    1
    21    25    26    2
    22    26    28    1
    23    28    29   ar
    24    29    30   ar
    25    30    31   ar
    26    31    32    1
    27    31    33   ar
    28    33    34   ar
    29     5     6   ar
    30     6     7   ar
    31     7     8    1
    32    18    14   ar
    33     7     1   ar
    34    26    21    1
    35    34    28   ar
    36    12    13    1
    37    22    27    1
@<TRIPOS>MOLECULE
*****
 34 37 0 0 0
SMALL
GASTEIGER

@<TRIPOS>ATOM
      1 C         140.0864  143.9343  162.6095 C.ar    1  UNL1        0.1535
      2 C         139.1619  142.7959  162.2944 C.ar    1  UNL1        0.0369
      3 C         138.7623  141.8336  163.3733 C.ar    1  UNL1        0.0930
      4 CL        137.8378  140.6951  163.0582 Cl      1  UNL1       -0.0790
      5 C         139.2873  142.0096  164.7674 C.ar    1  UNL1        0.1514
      6 C         140.2118  143.1480  165.0825 C.ar    1  UNL1        0.0688
      7 C         140.6113  144.1103  164.0035 C.ar    1  UNL1        0.1620
      8 F         141.5359  145.2488  164.3186 F       1  UNL1       -0.2026
      9 O         139.1522  145.5741  161.6409 O.2     1  UNL1       -0.1498
     10 S         140.4859  144.8967  161.5305 S.O2    1  UNL1        0.0769
     11 O         141.8197  144.2193  161.4201 O.2     1  UNL1       -0.1498
     12 N         140.8855  145.8591  160.4516 N.pl3   1  UNL1       -0.1984
     13 H         140.9875  146.8162  160.6587 H       1  UNL1        0.1753
     14 C         141.1295  145.3634  159.0570 C.ar    1  UNL1        0.1542
     15 C         140.3037  144.3472  158.3253 C.ar    1  UNL1        0.0725
     16 S         140.9060  144.1526  156.9654 S.2     1  UNL1       -0.0625
     17 C         142.1042  145.0486  156.8566 C.ar    1  UNL1        0.1360
     18 N         142.2423  145.7969  158.1493 N.ar    1  UNL1       -0.2203
     19 O         138.8877  141.0472  165.8464 O.3     1  UNL1       -0.4727
     20 C         139.8414  139.9767  166.2874 C.3     1  UNL1        0.2254
     21 C         140.4433  140.0276  167.6604 C.3     1  UNL1        0.1208
     22 N         139.5640  139.9086  168.8697 N.3     1  UNL1       -0.2918
     23 C         140.1659  139.9595  170.2426 C.3     1  UNL1        0.0736
     24 C         141.6473  140.1294  170.4062 C.3     1  UNL1        0.0428
     25 C         142.5266  140.2484  169.1969 C.2     1  UNL1       -0.0275
     26 C         141.9247  140.1975  167.8240 C.2     1  UNL1       -0.0086
     27 H         139.0785  139.0147  168.7940 H       1  UNL1        0.1236
     28 C         142.8040  140.3165  166.6146 C.ar    1  UNL1       -0.0028
     29 C         143.3278  139.0813  165.9437 C.ar    1  UNL1        0.0020
     30 C         144.2071  139.2003  164.7343 C.ar    1  UNL1        0.0296
     31 C         144.5627  140.5544  164.1958 C.ar    1  UNL1        0.1401
     32 F         145.4421  140.6733  162.9864 F       1  UNL1       -0.2042
     33 C         144.0390  141.7895  164.8667 C.ar    1  UNL1        0.0296
     34 C         143.1596  141.6706  166.0761 C.ar    1  UNL1        0.0020
@<TRIPOS>BOND
     1     9    10    2
     2    10    11    2
     3    10    12    1
     4    12    14    1
     5    14    15   ar
     6    15    16   ar
     7    16    17   ar
     8    17    18   ar
     9    10     1    1
    10     1     2   ar
    11     2     3   ar
    12     3     4    1
    13     3     5   ar
    14     5    19    1
    15    19    20    1
    16    20    21    1
    17    21    22    1
    18    22    23    1
    19    23    24    1
    20    24    25    1
    21    25    26    2
    22    26    28    1
    23    28    29   ar
    24    29    30   ar
    25    30    31   ar
    26    31    32    1
    27    31    33   ar
    28    33    34   ar
    29     5     6   ar
    30     6     7   ar
    31     7     8    1
    32    18    14   ar
    33     7     1   ar
    34    26    21    1
    35    34    28   ar
    36    12    13    1
    37    22    27    1
@<TRIPOS>MOLECULE
*****
 34 37 0 0 0
SMALL
GASTEIGER

@<TRIPOS>ATOM
      1 C         140.8907  143.1105  161.4512 C.ar    1  UNL1        0.1535
      2 C         141.6251  144.2766  162.0435 C.ar    1  UNL1        0.0369
      3 C         142.4589  144.0900  163.2763 C.ar    1  UNL1        0.0930
      4 CL        143.1933  145.2562  163.8687 Cl      1  UNL1       -0.0790
      5 C         142.5583  142.7373  163.9169 C.ar    1  UNL1        0.1514
      6 C         141.8240  141.5712  163.3246 C.ar    1  UNL1        0.0688
      7 C         140.9902  141.7578  162.0918 C.ar    1  UNL1        0.1620
      8 F         140.2557  140.5917  161.4994 F       1  UNL1       -0.2026
      9 O         138.9781  143.9328  161.0442 O.2     1  UNL1       -0.1498
     10 S         140.0568  143.2971  160.2183 S.O2    1  UNL1        0.0769
     11 O         141.1356  142.6613  159.3925 O.2     1  UNL1       -0.1498
     12 N         139.2230  143.4836  158.9856 N.pl3   1  UNL1       -0.1984
     13 H         138.3412  143.0512  158.9176 H       1  UNL1        0.1753
     14 C         139.7327  144.3291  157.8562 C.ar    1  UNL1        0.1542
     15 C         139.6969  143.9701  156.4002 C.ar    1  UNL1        0.0725
     16 S         140.3097  145.1011  155.6287 S.2     1  UNL1       -0.0625
     17 C         140.7243  146.1592  156.6079 C.ar    1  UNL1        0.1360
     18 N         140.3677  145.6820  157.9846 N.ar    1  UNL1       -0.2203
     19 O         143.3922  142.5508  165.1498 O.3     1  UNL1       -0.4727
     20 C         142.9285  141.6261  166.2360 C.3     1  UNL1        0.2254
     21 C         142.4382  142.1854  167.5386 C.3     1  UNL1        0.1208
     22 N         143.3880  142.3541  168.6873 N.3     1  UNL1       -0.2918
     23 C         142.8976  142.9134  169.9898 C.3     1  UNL1        0.0736
     24 C         141.4576  143.3040  170.1437 C.3     1  UNL1        0.0428
     25 C         140.5078  143.1353  168.9951 C.2     1  UNL1       -0.0275
     26 C         140.9982  142.5760  167.6925 C.2     1  UNL1       -0.0086
     27 H         144.1340  142.9703  168.3645 H       1  UNL1        0.1236
     28 C         140.0484  142.4072  166.5438 C.ar    1  UNL1       -0.0028
     29 C         139.5015  141.0494  166.2161 C.ar    1  UNL1        0.0020
     30 C         138.5518  140.8806  165.0674 C.ar    1  UNL1        0.0296
     31 C         138.1489  142.0696  164.2463 C.ar    1  UNL1        0.1401
     32 F         137.1992  141.9008  163.0977 F       1  UNL1       -0.2042
     33 C         138.6958  143.4274  164.5741 C.ar    1  UNL1        0.0296
     34 C         139.6456  143.5962  165.7228 C.ar    1  UNL1        0.0020
@<TRIPOS>BOND
     1     9    10    2
     2    10    11    2
     3    10    12    1
     4    12    14    1
     5    14    15   ar
     6    15    16   ar
     7    16    17   ar
     8    17    18   ar
     9    10     1    1
    10     1     2   ar
    11     2     3   ar
    12     3     4    1
    13     3     5   ar
    14     5    19    1
    15    19    20    1
    16    20    21    1
    17    21    22    1
    18    22    23    1
    19    23    24    1
    20    24    25    1
    21    25    26    2
    22    26    28    1
    23    28    29   ar
    24    29    30   ar
    25    30    31   ar
    26    31    32    1
    27    31    33   ar
    28    33    34   ar
    29     5     6   ar
    30     6     7   ar
    31     7     8    1
    32    18    14   ar
    33     7     1   ar
    34    26    21    1
    35    34    28   ar
    36    12    13    1
    37    22    27    1
@<TRIPOS>MOLECULE
*****
 34 37 0 0 0
SMALL
GASTEIGER

@<TRIPOS>ATOM
      1 C         140.4202  144.0371  161.9608 C.ar    1  UNL1        0.1535
      2 C         139.2139  143.1623  161.7896 C.ar    1  UNL1        0.0369
      3 C         138.6743  142.3919  162.9581 C.ar    1  UNL1        0.0930
      4 CL        137.4679  141.5170  162.7869 Cl      1  UNL1       -0.0790
      5 C         139.3409  142.4964  164.2977 C.ar    1  UNL1        0.1514
      6 C         140.5472  143.3713  164.4689 C.ar    1  UNL1        0.0688
      7 C         141.0869  144.1417  163.3005 C.ar    1  UNL1        0.1620
      8 F         142.2932  145.0166  163.4717 F       1  UNL1       -0.2026
      9 O         139.8111  145.7665  160.8941 O.2     1  UNL1       -0.1498
     10 S         140.9600  144.8075  160.7924 S.O2    1  UNL1        0.0769
     11 O         142.1088  143.8485  160.6907 O.2     1  UNL1       -0.1498
     12 N         141.4996  145.5779  159.6240 N.pl3   1  UNL1       -0.1984
     13 H         142.2230  146.2322  159.7576 H       1  UNL1        0.1753
     14 C         140.9371  145.3515  158.2519 C.ar    1  UNL1        0.1542
     15 C         140.0974  144.1842  157.8249 C.ar    1  UNL1        0.0725
     16 S         139.7569  144.3639  156.3752 S.2     1  UNL1       -0.0625
     17 C         140.3862  145.6422  155.9062 C.ar    1  UNL1        0.1360
     18 N         141.1156  146.2526  157.0662 N.ar    1  UNL1       -0.2203
     19 O         138.8012  141.7260  165.4662 O.3     1  UNL1       -0.4727
     20 C         139.0345  140.2474  165.5619 C.3     1  UNL1        0.2254
     21 C         140.4342  139.7113  165.6210 C.3     1  UNL1        0.1208
     22 N         140.9660  138.8768  164.4938 N.3     1  UNL1       -0.2918
     23 C         142.3656  138.3407  164.5530 C.3     1  UNL1        0.0736
     24 C         143.2335  138.6390  165.7395 C.3     1  UNL1        0.0428
     25 C         142.7017  139.4735  166.8668 C.2     1  UNL1       -0.0275
     26 C         141.3021  140.0096  166.8076 C.2     1  UNL1       -0.0086
     27 H         140.9047  139.4475  163.6506 H       1  UNL1        0.1236
     28 C         140.7702  140.8441  167.9349 C.ar    1  UNL1       -0.0028
     29 C         139.9174  140.2148  168.9963 C.ar    1  UNL1        0.0020
     30 C         139.3855  141.0492  170.1236 C.ar    1  UNL1        0.0296
     31 C         139.7065  142.5130  170.1895 C.ar    1  UNL1        0.1401
     32 F         139.1747  143.3475  171.3168 F       1  UNL1       -0.2042
     33 C         140.5594  143.1424  169.1281 C.ar    1  UNL1        0.0296
     34 C         141.0912  142.3078  168.0008 C.ar    1  UNL1        0.0020
@<TRIPOS>BOND
     1     9    10    2
     2    10    11    2
     3    10    12    1
     4    12    14    1
     5    14    15   ar
     6    15    16   ar
     7    16    17   ar
     8    17    18   ar
     9    10     1    1
    10     1     2   ar
    11     2     3   ar
    12     3     4    1
    13     3     5   ar
    14     5    19    1
    15    19    20    1
    16    20    21    1
    17    21    22    1
    18    22    23    1
    19    23    24    1
    20    24    25    1
    21    25    26    2
    22    26    28    1
    23    28    29   ar
    24    29    30   ar
    25    30    31   ar
    26    31    32    1
    27    31    33   ar
    28    33    34   ar
    29     5     6   ar
    30     6     7   ar
    31     7     8    1
    32    18    14   ar
    33     7     1   ar
    34    26    21    1
    35    34    28   ar
    36    12    13    1
    37    22    27    1
@<TRIPOS>MOLECULE
*****
 34 37 0 0 0
SMALL
GASTEIGER

@<TRIPOS>ATOM
      1 C         139.8588  139.5008  161.5944 C.ar    1  UNL1        0.1535
      2 C         139.9666  138.2129  162.3557 C.ar    1  UNL1        0.0369
      3 C         140.9069  138.1061  163.5195 C.ar    1  UNL1        0.0930
      4 CL        141.0147  136.8182  164.2808 Cl      1  UNL1       -0.0790
      5 C         141.7394  139.2872  163.9219 C.ar    1  UNL1        0.1514
      6 C         141.6316  140.5751  163.1606 C.ar    1  UNL1        0.0688
      7 C         140.6913  140.6819  161.9968 C.ar    1  UNL1        0.1620
      8 F         140.5834  141.9699  161.2354 F       1  UNL1       -0.2026
      9 O         139.8837  138.8365  159.5799 O.2     1  UNL1       -0.1498
     10 S         138.9185  139.6077  160.4306 S.O2    1  UNL1        0.0769
     11 O         137.9532  140.3788  161.2812 O.2     1  UNL1       -0.1498
     12 N         137.9782  139.7145  159.2668 N.pl3   1  UNL1       -0.1984
     13 H         137.3168  139.0042  159.1014 H       1  UNL1        0.1753
     14 C         138.0456  140.9036  158.3548 C.ar    1  UNL1        0.1542
     15 C         139.0906  141.9792  158.3843 C.ar    1  UNL1        0.0725
     16 S         138.7706  142.9662  157.3009 S.2     1  UNL1       -0.0625
     17 C         137.5278  142.5004  156.6019 C.ar    1  UNL1        0.1360
     18 N         137.0797  141.2256  157.2532 N.ar    1  UNL1       -0.2203
     19 O         142.6797  139.1804  165.0857 O.3     1  UNL1       -0.4727
     20 C         142.7332  140.2751  166.1097 C.3     1  UNL1        0.2254
     21 C         142.1193  140.0674  167.4625 C.3     1  UNL1        0.1208
     22 N         142.9356  139.4774  168.5740 N.3     1  UNL1       -0.2918
     23 C         142.3217  139.2697  169.9267 C.3     1  UNL1        0.0736
     24 C         140.8915  139.6519  170.1680 C.3     1  UNL1        0.0428
     25 C         140.0751  140.2419  169.0565 C.2     1  UNL1       -0.0275
     26 C         140.6890  140.4496  167.7038 C.2     1  UNL1       -0.0086
     27 H         143.7396  140.0909  168.7066 H       1  UNL1        0.1236
     28 C         139.8726  141.0397  166.5922 C.ar    1  UNL1       -0.0028
     29 C         138.8814  140.1879  165.8561 C.ar    1  UNL1        0.0020
     30 C         138.0650  140.7779  164.7446 C.ar    1  UNL1        0.0296
     31 C         138.2399  142.2196  164.3692 C.ar    1  UNL1        0.1401
     32 F         137.4236  142.8096  163.2577 F       1  UNL1       -0.2042
     33 C         139.2312  143.0714  165.1053 C.ar    1  UNL1        0.0296
     34 C         140.0476  142.4813  166.2169 C.ar    1  UNL1        0.0020
@<TRIPOS>BOND
     1     9    10    2
     2    10    11    2
     3    10    12    1
     4    12    14    1
     5    14    15   ar
     6    15    16   ar
     7    16    17   ar
     8    17    18   ar
     9    10     1    1
    10     1     2   ar
    11     2     3   ar
    12     3     4    1
    13     3     5   ar
    14     5    19    1
    15    19    20    1
    16    20    21    1
    17    21    22    1
    18    22    23    1
    19    23    24    1
    20    24    25    1
    21    25    26    2
    22    26    28    1
    23    28    29   ar
    24    29    30   ar
    25    30    31   ar
    26    31    32    1
    27    31    33   ar
    28    33    34   ar
    29     5     6   ar
    30     6     7   ar
    31     7     8    1
    32    18    14   ar
    33     7     1   ar
    34    26    21    1
    35    34    28   ar
    36    12    13    1
    37    22    27    1
