@<TRIPOS>MOLECULE
*****
 29 31 0 0 0
SMALL
GASTEIGER

@<TRIPOS>ATOM
      1 C         142.0706  140.3966  161.8381 C.ar    1  UNL1        0.1303
      2 N         141.1548  139.8624  162.8992 N.ar    1  UNL1       -0.2097
      3 C         140.8129  138.4022  162.9291 C.ar    1  UNL1        0.2209
      4 N         141.3868  137.4763  161.8980 N.ar    1  UNL1       -0.2096
      5 C         142.3026  138.0105  160.8369 C.ar    1  UNL1        0.1330
      6 C         142.6445  139.4706  160.8070 C.ar    1  UNL1        0.1783
      7 F         143.5603  140.0049  159.7459 F       1  UNL1       -0.2009
      8 C         143.9640  145.1395  163.1803 C.3     1  UNL1        0.0718
      9 C         143.2829  144.0369  162.4251 C.ar    1  UNL1        0.1208
     10 N         142.5946  144.1709  161.0990 N.ar    1  UNL1       -0.2293
     11 C         142.0567  142.8235  160.7178 C.ar    1  UNL1        0.1189
     12 C         142.4125  141.8569  161.8082 C.ar    1  UNL1        0.1003
     13 N         143.1703  142.6068  162.8633 N.ar    1  UNL1       -0.3155
     14 C         143.7192  142.0282  164.1337 C.3     1  UNL1        0.0868
     15 C         144.9893  141.2306  164.1073 C.3     1  UNL1        0.0245
     16 C         142.9981  142.2471  165.4306 C.3     1  UNL1        0.0245
     17 N         139.8971  137.8679  163.9902 N.pl3   1  UNL1       -0.2825
     18 H         139.3511  137.0683  163.8122 H       1  UNL1        0.1551
     19 C         139.8132  138.5520  165.3225 C.ar    1  UNL1        0.0505
     20 C         138.4844  138.7170  165.9986 C.ar    1  UNL1        0.0148
     21 C         138.4005  139.4011  167.3309 C.ar    1  UNL1        0.0058
     22 C         139.6455  139.9202  167.9871 C.ar    1  UNL1        0.0537
     23 C         140.9743  139.7552  167.3110 C.ar    1  UNL1        0.0058
     24 C         141.0581  139.0711  165.9788 C.ar    1  UNL1        0.0148
     25 C         139.5617  140.6043  169.3194 C.2     1  UNL1        0.2491
     26 O         139.0667  139.8520  170.5189 O.2     1  UNL1       -0.2699
     27 N         139.9729  142.0407  169.4521 N.am    1  UNL1       -0.2726
     28 C         139.8890  142.7248  170.7844 C.3     1  UNL1        0.1152
     29 C         140.4679  142.7930  168.2526 C.3     1  UNL1        0.1152
@<TRIPOS>BOND
     1     8     9    1
     2     9    10   ar
     3    10    11   ar
     4    11    12   ar
     5    12     1    1
     6     1     2   ar
     7     2     3   ar
     8     3    17    1
     9    17    19    1
    10    19    20   ar
    11    20    21   ar
    12    21    22   ar
    13    22    25    1
    14    25    26    2
    15    25    27   am
    16    27    28    1
    17    27    29    1
    18    22    23   ar
    19    23    24   ar
    20     3     4   ar
    21     4     5   ar
    22     5     6   ar
    23     6     7    1
    24    12    13   ar
    25    13    14    1
    26    14    15    1
    27    14    16    1
    28    13     9   ar
    29     6     1   ar
    30    24    19   ar
    31    17    18    1
@<TRIPOS>MOLECULE
*****
 29 31 0 0 0
SMALL
GASTEIGER

@<TRIPOS>ATOM
      1 C         141.9653  141.4881  161.7598 C.ar    1  UNL1        0.1303
      2 N         141.4762  140.5786  162.8477 N.ar    1  UNL1       -0.2097
      3 C         142.2803  139.3732  163.2354 C.ar    1  UNL1        0.2209
      4 N         143.5735  139.0773  162.5354 N.ar    1  UNL1       -0.2096
      5 C         144.0626  139.9868  161.4475 C.ar    1  UNL1        0.1330
      6 C         143.2585  141.1922  161.0597 C.ar    1  UNL1        0.1783
      7 F         143.7477  142.1018  159.9718 F       1  UNL1       -0.2009
      8 C         139.7097  146.2615  161.8500 C.3     1  UNL1        0.0718
      9 C         140.1245  144.8877  161.4135 C.ar    1  UNL1        0.1208
     10 N         139.7235  144.2095  160.1370 N.ar    1  UNL1       -0.2293
     11 C         140.3642  142.8535  160.1114 C.ar    1  UNL1        0.1189
     12 C         141.1613  142.6936  161.3720 C.ar    1  UNL1        0.1003
     13 N         141.0131  143.9508  162.1767 N.ar    1  UNL1       -0.3155
     14 C         141.6430  144.2232  163.5105 C.3     1  UNL1        0.0868
     15 C         142.8635  145.0904  163.6005 C.3     1  UNL1        0.0245
     16 C         141.0523  143.6284  164.7544 C.3     1  UNL1        0.0245
     17 N         141.7912  138.4636  164.3234 N.pl3   1  UNL1       -0.2825
     18 H         141.7749  137.4896  164.1805 H       1  UNL1        0.1551
     19 C         141.3269  139.0379  165.6289 C.ar    1  UNL1        0.0505
     20 C         142.3155  139.3031  166.7255 C.ar    1  UNL1        0.0148
     21 C         141.8512  139.8775  168.0311 C.ar    1  UNL1        0.0058
     22 C         140.3983  140.1867  168.2401 C.ar    1  UNL1        0.0537
     23 C         139.4098  139.9215  167.1435 C.ar    1  UNL1        0.0058
     24 C         139.8741  139.3471  165.8379 C.ar    1  UNL1        0.0148
     25 C         139.9340  140.7610  169.5457 C.2     1  UNL1        0.2491
     26 O         139.4235  139.8533  170.6251 O.2     1  UNL1       -0.2699
     27 N         139.9802  142.2432  169.7717 N.am    1  UNL1       -0.2726
     28 C         139.5159  142.8176  171.0773 C.3     1  UNL1        0.1152
     29 C         140.4907  143.1510  168.6922 C.3     1  UNL1        0.1152
@<TRIPOS>BOND
     1     8     9    1
     2     9    10   ar
     3    10    11   ar
     4    11    12   ar
     5    12     1    1
     6     1     2   ar
     7     2     3   ar
     8     3    17    1
     9    17    19    1
    10    19    20   ar
    11    20    21   ar
    12    21    22   ar
    13    22    25    1
    14    25    26    2
    15    25    27   am
    16    27    28    1
    17    27    29    1
    18    22    23   ar
    19    23    24   ar
    20     3     4   ar
    21     4     5   ar
    22     5     6   ar
    23     6     7    1
    24    12    13   ar
    25    13    14    1
    26    14    15    1
    27    14    16    1
    28    13     9   ar
    29     6     1   ar
    30    24    19   ar
    31    17    18    1
@<TRIPOS>MOLECULE
*****
 29 31 0 0 0
SMALL
GASTEIGER

@<TRIPOS>ATOM
      1 C         141.9511  140.3056  160.1267 C.ar    1  UNL1        0.1303
      2 N         140.7616  139.8590  160.9239 N.ar    1  UNL1       -0.2097
      3 C         139.6673  139.0746  160.2628 C.ar    1  UNL1        0.2209
      4 N         139.7625  138.7367  158.8044 N.ar    1  UNL1       -0.2096
      5 C         140.9520  139.1833  158.0072 C.ar    1  UNL1        0.1330
      6 C         142.0463  139.9678  158.6684 C.ar    1  UNL1        0.1783
      7 F         143.2359  140.4144  157.8711 F       1  UNL1       -0.2009
      8 C         145.8800  141.6941  163.3697 C.3     1  UNL1        0.0718
      9 C         144.8514  141.7283  162.2785 C.ar    1  UNL1        0.1208
     10 N         144.6075  142.8661  161.3320 N.ar    1  UNL1       -0.2293
     11 C         143.4914  142.4717  160.4108 C.ar    1  UNL1        0.1189
     12 C         143.0455  141.0901  160.7879 C.ar    1  UNL1        0.1003
     13 N         143.8860  140.6306  161.9422 N.ar    1  UNL1       -0.3155
     14 C         143.7797  139.3061  162.6381 C.3     1  UNL1        0.0868
     15 C         143.9413  138.0345  161.8591 C.3     1  UNL1        0.0245
     16 C         143.5118  139.2531  164.1130 C.3     1  UNL1        0.0245
     17 N         138.4777  138.6279  161.0600 N.pl3   1  UNL1       -0.2825
     18 H         137.6952  138.2430  160.6030 H       1  UNL1        0.1551
     19 C         138.4804  138.7676  162.5535 C.ar    1  UNL1        0.0505
     20 C         138.9504  137.6311  163.4123 C.ar    1  UNL1        0.0148
     21 C         138.9531  137.7708  164.9057 C.ar    1  UNL1        0.0058
     22 C         138.4858  139.0471  165.5404 C.ar    1  UNL1        0.0537
     23 C         138.0159  140.1836  164.6817 C.ar    1  UNL1        0.0058
     24 C         138.0132  140.0439  163.1882 C.ar    1  UNL1        0.0148
     25 C         138.4885  139.1869  167.0339 C.2     1  UNL1        0.2491
     26 O         137.4462  138.4869  167.8546 O.2     1  UNL1       -0.2699
     27 N         139.5336  140.0267  167.7067 N.am    1  UNL1       -0.2726
     28 C         139.5363  140.1664  169.2002 C.3     1  UNL1        0.1152
     29 C         140.5760  140.7266  166.8861 C.3     1  UNL1        0.1152
@<TRIPOS>BOND
     1     8     9    1
     2     9    10   ar
     3    10    11   ar
     4    11    12   ar
     5    12     1    1
     6     1     2   ar
     7     2     3   ar
     8     3    17    1
     9    17    19    1
    10    19    20   ar
    11    20    21   ar
    12    21    22   ar
    13    22    25    1
    14    25    26    2
    15    25    27   am
    16    27    28    1
    17    27    29    1
    18    22    23   ar
    19    23    24   ar
    20     3     4   ar
    21     4     5   ar
    22     5     6   ar
    23     6     7    1
    24    12    13   ar
    25    13    14    1
    26    14    15    1
    27    14    16    1
    28    13     9   ar
    29     6     1   ar
    30    24    19   ar
    31    17    18    1
@<TRIPOS>MOLECULE
*****
 29 31 0 0 0
SMALL
GASTEIGER

@<TRIPOS>ATOM
      1 C         140.3102  140.7231  161.4386 C.ar    1  UNL1        0.1303
      2 N         140.9017  140.2023  162.7148 N.ar    1  UNL1       -0.2097
      3 C         140.8650  138.7329  163.0137 C.ar    1  UNL1        0.2209
      4 N         140.2368  137.7842  162.0363 N.ar    1  UNL1       -0.2096
      5 C         139.6453  138.3049  160.7600 C.ar    1  UNL1        0.1330
      6 C         139.6820  139.7744  160.4612 C.ar    1  UNL1        0.1783
      7 F         139.0904  140.2952  159.1848 F       1  UNL1       -0.2009
      8 C         139.7238  145.9525  161.8745 C.3     1  UNL1        0.0718
      9 C         140.0773  144.5963  161.3401 C.ar    1  UNL1        0.1208
     10 N         140.7291  144.3114  160.0195 N.ar    1  UNL1       -0.2293
     11 C         140.8957  142.8258  159.8956 C.ar    1  UNL1        0.1189
     12 C         140.3468  142.1926  161.1397 C.ar    1  UNL1        0.1003
     13 N         139.8410  143.2868  162.0324 N.ar    1  UNL1       -0.3155
     14 C         139.2098  143.1036  163.3807 C.3     1  UNL1        0.0868
     15 C         137.7382  142.8346  163.4896 C.3     1  UNL1        0.0245
     16 C         140.0502  143.1894  164.6202 C.3     1  UNL1        0.0245
     17 N         141.4565  138.2121  164.2900 N.pl3   1  UNL1       -0.2825
     18 H         142.0871  137.4563  164.2679 H       1  UNL1        0.1551
     19 C         141.0873  138.8427  165.5999 C.ar    1  UNL1        0.0505
     20 C         139.6497  139.1356  165.9125 C.ar    1  UNL1        0.0148
     21 C         139.2804  139.7663  167.2224 C.ar    1  UNL1        0.0058
     22 C         140.3488  140.1041  168.2198 C.ar    1  UNL1        0.0537
     23 C         141.7863  139.8112  167.9072 C.ar    1  UNL1        0.0058
     24 C         142.1555  139.1805  166.5973 C.ar    1  UNL1        0.0148
     25 C         139.9795  140.7347  169.5297 C.2     1  UNL1        0.2491
     26 O         139.5777  139.8733  170.6900 O.2     1  UNL1       -0.2699
     27 N         140.0121  142.2269  169.6793 N.am    1  UNL1       -0.2726
     28 C         139.6428  142.8576  170.9892 C.3     1  UNL1        0.1152
     29 C         140.4139  143.0884  168.5190 C.3     1  UNL1        0.1152
@<TRIPOS>BOND
     1     8     9    1
     2     9    10   ar
     3    10    11   ar
     4    11    12   ar
     5    12     1    1
     6     1     2   ar
     7     2     3   ar
     8     3    17    1
     9    17    19    1
    10    19    20   ar
    11    20    21   ar
    12    21    22   ar
    13    22    25    1
    14    25    26    2
    15    25    27   am
    16    27    28    1
    17    27    29    1
    18    22    23   ar
    19    23    24   ar
    20     3     4   ar
    21     4     5   ar
    22     5     6   ar
    23     6     7    1
    24    12    13   ar
    25    13    14    1
    26    14    15    1
    27    14    16    1
    28    13     9   ar
    29     6     1   ar
    30    24    19   ar
    31    17    18    1
@<TRIPOS>MOLECULE
*****
 29 31 0 0 0
SMALL
GASTEIGER

@<TRIPOS>ATOM
      1 C         140.3665  141.1397  166.0855 C.ar    1  UNL1        0.1303
      2 N         140.7469  142.4951  165.5679 N.ar    1  UNL1       -0.2097
      3 C         139.8212  143.2330  164.6467 C.ar    1  UNL1        0.2209
      4 N         138.5151  142.6154  164.2432 N.ar    1  UNL1       -0.2096
      5 C         138.1347  141.2600  164.7609 C.ar    1  UNL1        0.1330
      6 C         139.0604  140.5221  165.6820 C.ar    1  UNL1        0.1783
      7 F         138.6800  139.1666  166.1998 F       1  UNL1       -0.2009
      8 C         142.6705  139.2795  170.4573 C.3     1  UNL1        0.0718
      9 C         142.3512  139.5467  169.0163 C.ar    1  UNL1        0.1208
     10 N         143.0819  138.9856  167.8325 N.ar    1  UNL1       -0.2293
     11 C         142.4274  139.5140  166.5906 C.ar    1  UNL1        0.1189
     12 C         141.2921  140.4017  167.0067 C.ar    1  UNL1        0.1003
     13 N         141.2451  140.4219  168.5059 N.ar    1  UNL1       -0.3155
     14 C         140.2641  141.1836  169.3470 C.3     1  UNL1        0.0868
     15 C         139.0579  140.4893  169.9066 C.3     1  UNL1        0.0245
     16 C         140.4892  142.6396  169.6286 C.3     1  UNL1        0.0245
     17 N         140.2016  144.5885  164.1290 N.pl3   1  UNL1       -0.2825
     18 H         140.2500  145.3550  164.7450 H       1  UNL1        0.1551
     19 C         140.5082  144.7762  162.6727 C.ar    1  UNL1        0.0505
     20 C         141.5583  143.9326  162.0126 C.ar    1  UNL1        0.0148
     21 C         141.8649  144.1203  160.5563 C.ar    1  UNL1        0.0058
     22 C         141.1214  145.1516  159.7601 C.ar    1  UNL1        0.0537
     23 C         140.0714  145.9951  160.4203 C.ar    1  UNL1        0.0058
     24 C         139.7648  145.8074  161.8765 C.ar    1  UNL1        0.0148
     25 C         141.4281  145.3393  158.3038 C.2     1  UNL1        0.2491
     26 O         142.5253  146.2712  157.8825 O.2     1  UNL1       -0.2699
     27 N         140.6374  144.5949  157.2689 N.am    1  UNL1       -0.2726
     28 C         140.9441  144.7826  155.8126 C.3     1  UNL1        0.1152
     29 C         139.5402  143.6630  157.6903 C.3     1  UNL1        0.1152
@<TRIPOS>BOND
     1     8     9    1
     2     9    10   ar
     3    10    11   ar
     4    11    12   ar
     5    12     1    1
     6     1     2   ar
     7     2     3   ar
     8     3    17    1
     9    17    19    1
    10    19    20   ar
    11    20    21   ar
    12    21    22   ar
    13    22    25    1
    14    25    26    2
    15    25    27   am
    16    27    28    1
    17    27    29    1
    18    22    23   ar
    19    23    24   ar
    20     3     4   ar
    21     4     5   ar
    22     5     6   ar
    23     6     7    1
    24    12    13   ar
    25    13    14    1
    26    14    15    1
    27    14    16    1
    28    13     9   ar
    29     6     1   ar
    30    24    19   ar
    31    17    18    1
@<TRIPOS>MOLECULE
*****
 29 31 0 0 0
SMALL
GASTEIGER

@<TRIPOS>ATOM
      1 C         141.6372  142.2468  161.4975 C.ar    1  UNL1        0.1303
      2 N         142.3320  141.4316  162.5475 N.ar    1  UNL1       -0.2097
      3 C         143.7524  140.9961  162.3408 C.ar    1  UNL1        0.2209
      4 N         144.4779  141.3758  161.0840 N.ar    1  UNL1       -0.2096
      5 C         143.7831  142.1910  160.0340 C.ar    1  UNL1        0.1330
      6 C         142.3627  142.6265  160.2408 C.ar    1  UNL1        0.1783
      7 F         141.6677  143.4418  159.1908 F       1  UNL1       -0.2009
      8 C         137.3083  144.4329  163.5863 C.3     1  UNL1        0.0718
      9 C         138.2269  143.6872  162.6644 C.ar    1  UNL1        0.1208
     10 N         137.8349  143.0178  161.3805 N.ar    1  UNL1       -0.2293
     11 C         139.0646  142.3968  160.7872 C.ar    1  UNL1        0.1189
     12 C         140.2167  142.6823  161.7043 C.ar    1  UNL1        0.1003
     13 N         139.6990  143.4798  162.8645 N.ar    1  UNL1       -0.3155
     14 C         140.5108  143.9817  164.0216 C.3     1  UNL1        0.0868
     15 C         141.4844  145.1054  163.8234 C.3     1  UNL1        0.0245
     16 C         140.3491  143.3599  165.3771 C.3     1  UNL1        0.0245
     17 N         144.4474  140.1808  163.3908 N.pl3   1  UNL1       -0.2825
     18 H         145.2636  139.6791  163.1643 H       1  UNL1        0.1551
     19 C         143.8988  140.1301  164.7859 C.ar    1  UNL1        0.0505
     20 C         143.5811  141.4028  165.5137 C.ar    1  UNL1        0.0148
     21 C         143.0325  141.3520  166.9088 C.ar    1  UNL1        0.0058
     22 C         142.8015  140.0286  167.5762 C.ar    1  UNL1        0.0537
     23 C         143.1191  138.7561  166.8485 C.ar    1  UNL1        0.0058
     24 C         143.6677  138.8068  165.4533 C.ar    1  UNL1        0.0148
     25 C         142.2528  139.9779  168.9714 C.2     1  UNL1        0.2491
     26 O         143.1866  139.8861  170.1416 O.2     1  UNL1       -0.2699
     27 N         140.7703  140.0190  169.1962 N.am    1  UNL1       -0.2726
     28 C         140.2217  139.9683  170.5913 C.3     1  UNL1        0.1152
     29 C         139.8365  140.1108  168.0260 C.3     1  UNL1        0.1152
@<TRIPOS>BOND
     1     8     9    1
     2     9    10   ar
     3    10    11   ar
     4    11    12   ar
     5    12     1    1
     6     1     2   ar
     7     2     3   ar
     8     3    17    1
     9    17    19    1
    10    19    20   ar
    11    20    21   ar
    12    21    22   ar
    13    22    25    1
    14    25    26    2
    15    25    27   am
    16    27    28    1
    17    27    29    1
    18    22    23   ar
    19    23    24   ar
    20     3     4   ar
    21     4     5   ar
    22     5     6   ar
    23     6     7    1
    24    12    13   ar
    25    13    14    1
    26    14    15    1
    27    14    16    1
    28    13     9   ar
    29     6     1   ar
    30    24    19   ar
    31    17    18    1
@<TRIPOS>MOLECULE
*****
 29 31 0 0 0
SMALL
GASTEIGER

@<TRIPOS>ATOM
      1 C         142.0085  140.0347  160.3662 C.ar    1  UNL1        0.1303
      2 N         140.8869  139.4517  161.1738 N.ar    1  UNL1       -0.2097
      3 C         139.8392  138.6119  160.5054 C.ar    1  UNL1        0.2209
      4 N         139.9130  138.3550  159.0294 N.ar    1  UNL1       -0.2096
      5 C         141.0345  138.9379  158.2218 C.ar    1  UNL1        0.1330
      6 C         142.0823  139.7778  158.8902 C.ar    1  UNL1        0.1783
      7 F         143.2040  140.3607  158.0827 F       1  UNL1       -0.2009
      8 C         144.4961  144.1198  162.6033 C.3     1  UNL1        0.0718
      9 C         144.1997  142.7523  162.0629 C.ar    1  UNL1        0.1208
     10 N         145.1377  141.5817  162.0635 N.ar    1  UNL1       -0.2293
     11 C         144.4310  140.4212  161.4280 C.ar    1  UNL1        0.1189
     12 C         143.0563  140.8745  161.0347 C.ar    1  UNL1        0.1003
     13 N         142.9134  142.3152  161.4271 N.ar    1  UNL1       -0.3155
     14 C         141.6976  143.1690  161.2200 C.3     1  UNL1        0.0868
     15 C         141.5874  144.0337  159.9993 C.3     1  UNL1        0.0245
     16 C         140.5920  143.1581  162.2336 C.3     1  UNL1        0.0245
     17 N         138.7175  138.0289  161.3129 N.pl3   1  UNL1       -0.2825
     18 H         138.0354  137.4694  160.8760 H       1  UNL1        0.1551
     19 C         138.6351  138.2985  162.7862 C.ar    1  UNL1        0.0505
     20 C         139.1063  137.2644  163.7654 C.ar    1  UNL1        0.0148
     21 C         139.0239  137.5340  165.2387 C.ar    1  UNL1        0.0058
     22 C         138.4704  138.8377  165.7328 C.ar    1  UNL1        0.0537
     23 C         137.9993  139.8717  164.7536 C.ar    1  UNL1        0.0058
     24 C         138.0816  139.6021  163.2803 C.ar    1  UNL1        0.0148
     25 C         138.3880  139.1073  167.2060 C.2     1  UNL1        0.2491
     26 O         137.2866  138.4955  168.0200 O.2     1  UNL1       -0.2699
     27 N         139.4071  139.9888  167.8653 N.am    1  UNL1       -0.2726
     28 C         139.3247  140.2584  169.3386 C.3     1  UNL1        0.1152
     29 C         140.5084  140.6006  167.0513 C.3     1  UNL1        0.1152
@<TRIPOS>BOND
     1     8     9    1
     2     9    10   ar
     3    10    11   ar
     4    11    12   ar
     5    12     1    1
     6     1     2   ar
     7     2     3   ar
     8     3    17    1
     9    17    19    1
    10    19    20   ar
    11    20    21   ar
    12    21    22   ar
    13    22    25    1
    14    25    26    2
    15    25    27   am
    16    27    28    1
    17    27    29    1
    18    22    23   ar
    19    23    24   ar
    20     3     4   ar
    21     4     5   ar
    22     5     6   ar
    23     6     7    1
    24    12    13   ar
    25    13    14    1
    26    14    15    1
    27    14    16    1
    28    13     9   ar
    29     6     1   ar
    30    24    19   ar
    31    17    18    1
@<TRIPOS>MOLECULE
*****
 29 31 0 0 0
SMALL
GASTEIGER

@<TRIPOS>ATOM
      1 C         142.5360  140.2190  165.4396 C.ar    1  UNL1        0.1303
      2 N         142.7190  141.4824  164.6521 N.ar    1  UNL1       -0.2097
      3 C         143.9750  141.6977  163.8609 C.ar    1  UNL1        0.2209
      4 N         145.0480  140.6495  163.8572 N.ar    1  UNL1       -0.2096
      5 C         144.8651  139.3861  164.6447 C.ar    1  UNL1        0.1330
      6 C         143.6091  139.1708  165.4359 C.ar    1  UNL1        0.1783
      7 F         143.4260  137.9073  166.2235 F       1  UNL1       -0.2009
      8 C         137.7430  138.5508  166.8973 C.3     1  UNL1        0.0718
      9 C         139.0769  139.2368  166.9009 C.ar    1  UNL1        0.1208
     10 N         139.6175  140.1077  167.9960 N.ar    1  UNL1       -0.2293
     11 C         140.9791  140.5816  167.5820 C.ar    1  UNL1        0.1189
     12 C         141.2800  140.0037  166.2309 C.ar    1  UNL1        0.1003
     13 N         140.1044  139.1725  165.8100 N.ar    1  UNL1       -0.3155
     14 C         139.9783  138.4109  164.5239 C.3     1  UNL1        0.0868
     15 C         140.7682  137.1527  164.3169 C.3     1  UNL1        0.0245
     16 C         139.0624  138.9074  163.4448 C.3     1  UNL1        0.0245
     17 N         144.1581  142.9612  163.0733 N.pl3   1  UNL1       -0.2825
     18 H         144.9048  143.5677  163.2823 H       1  UNL1        0.1551
     19 C         143.2033  143.3005  161.9673 C.ar    1  UNL1        0.0505
     20 C         143.2071  142.4973  160.7004 C.ar    1  UNL1        0.0148
     21 C         142.2524  142.8366  159.5944 C.ar    1  UNL1        0.0058
     22 C         141.2937  143.9791  159.7553 C.ar    1  UNL1        0.0537
     23 C         141.2899  144.7822  161.0221 C.ar    1  UNL1        0.0058
     24 C         142.2446  144.4429  162.1281 C.ar    1  UNL1        0.0148
     25 C         140.3389  144.3184  158.6493 C.2     1  UNL1        0.2491
     26 O         138.9832  143.6779  158.6059 O.2     1  UNL1       -0.2699
     27 N         140.7399  145.2982  157.5866 N.am    1  UNL1       -0.2726
     28 C         139.7851  145.6375  156.4806 C.3     1  UNL1        0.1152
     29 C         142.0955  145.9387  157.6299 C.3     1  UNL1        0.1152
@<TRIPOS>BOND
     1     8     9    1
     2     9    10   ar
     3    10    11   ar
     4    11    12   ar
     5    12     1    1
     6     1     2   ar
     7     2     3   ar
     8     3    17    1
     9    17    19    1
    10    19    20   ar
    11    20    21   ar
    12    21    22   ar
    13    22    25    1
    14    25    26    2
    15    25    27   am
    16    27    28    1
    17    27    29    1
    18    22    23   ar
    19    23    24   ar
    20     3     4   ar
    21     4     5   ar
    22     5     6   ar
    23     6     7    1
    24    12    13   ar
    25    13    14    1
    26    14    15    1
    27    14    16    1
    28    13     9   ar
    29     6     1   ar
    30    24    19   ar
    31    17    18    1
@<TRIPOS>MOLECULE
*****
 29 31 0 0 0
SMALL
GASTEIGER

@<TRIPOS>ATOM
      1 C         140.6298  142.4349  161.7659 C.ar    1  UNL1        0.1303
      2 N         139.8548  141.8732  162.9208 N.ar    1  UNL1       -0.2097
      3 C         138.3947  141.5666  162.7658 C.ar    1  UNL1        0.2209
      4 N         137.7096  141.8217  161.4560 N.ar    1  UNL1       -0.2096
      5 C         138.4847  142.3834  160.3011 C.ar    1  UNL1        0.1330
      6 C         139.9448  142.6900  160.4561 C.ar    1  UNL1        0.1783
      7 F         140.7199  143.2517  159.3011 F       1  UNL1       -0.2009
      8 C         145.7798  141.9434  162.8230 C.3     1  UNL1        0.0718
      9 C         144.4572  142.5156  162.4067 C.ar    1  UNL1        0.1208
     10 N         144.2167  143.9110  161.9116 N.ar    1  UNL1       -0.2293
     11 C         142.7537  144.0506  161.6113 C.ar    1  UNL1        0.1189
     12 C         142.0900  142.7415  161.9208 C.ar    1  UNL1        0.1003
     13 N         143.1428  141.7928  162.4123 N.ar    1  UNL1       -0.3155
     14 C         142.9204  140.3710  162.8353 C.3     1  UNL1        0.0868
     15 C         142.5894  140.0565  164.2641 C.3     1  UNL1        0.0245
     16 C         143.0288  139.2636  161.8293 C.3     1  UNL1        0.0245
     17 N         137.6196  141.0049  163.9207 N.pl3   1  UNL1       -0.2825
     18 H         136.6567  140.8233  163.8255 H       1  UNL1        0.1551
     19 C         138.3116  140.7199  165.2207 C.ar    1  UNL1        0.0505
     20 C         139.2621  141.7251  165.8005 C.ar    1  UNL1        0.0148
     21 C         139.9542  141.4401  167.1004 C.ar    1  UNL1        0.0058
     22 C         139.6957  140.1499  167.8206 C.ar    1  UNL1        0.0537
     23 C         138.7452  139.1448  167.2408 C.ar    1  UNL1        0.0058
     24 C         138.0532  139.4298  165.9408 C.ar    1  UNL1        0.0148
     25 C         140.3877  139.8649  169.1205 C.2     1  UNL1        0.2491
     26 O         139.6148  139.9018  170.4055 O.2     1  UNL1       -0.2699
     27 N         141.8528  139.5430  169.1354 N.am    1  UNL1       -0.2726
     28 C         142.5448  139.2580  170.4354 C.3     1  UNL1        0.1152
     29 C         142.6257  139.5062  167.8505 C.3     1  UNL1        0.1152
@<TRIPOS>BOND
     1     8     9    1
     2     9    10   ar
     3    10    11   ar
     4    11    12   ar
     5    12     1    1
     6     1     2   ar
     7     2     3   ar
     8     3    17    1
     9    17    19    1
    10    19    20   ar
    11    20    21   ar
    12    21    22   ar
    13    22    25    1
    14    25    26    2
    15    25    27   am
    16    27    28    1
    17    27    29    1
    18    22    23   ar
    19    23    24   ar
    20     3     4   ar
    21     4     5   ar
    22     5     6   ar
    23     6     7    1
    24    12    13   ar
    25    13    14    1
    26    14    15    1
    27    14    16    1
    28    13     9   ar
    29     6     1   ar
    30    24    19   ar
    31    17    18    1
