@<TRIPOS>MOLECULE
*****
 40 43 0 0 0
SMALL
GASTEIGER

@<TRIPOS>ATOM
      1 O         145.9558  141.7534  162.7725 O.2     1  UNL1       -0.2749
      2 C         144.7910  142.6511  163.0682 C.2     1  UNL1        0.2256
      3 N         143.9025  143.1186  161.9537 N.am    1  UNL1       -0.2766
      4 C         142.7376  144.0163  162.2494 C.3     1  UNL1        0.1126
      5 C         141.8492  144.4838  161.1349 C.3     1  UNL1        0.1173
      6 N         142.1255  144.0536  159.7247 N.3     1  UNL1       -0.1520
      7 C         143.2903  143.1559  159.4290 C.3     1  UNL1        0.1173
      8 C         144.1788  142.6884  160.5435 C.3     1  UNL1        0.1126
      9 C         144.5146  143.0813  164.4783 C.3     1  UNL1        0.0811
     10 C         144.8331  143.9535  165.6564 C.3     1  UNL1        0.0142
     11 C         143.7176  142.9543  165.7427 C.3     1  UNL1        0.0314
     12 C         142.6134  142.3040  166.5225 C.ar    1  UNL1       -0.0220
     13 C         142.9347  141.4862  167.7381 C.ar    1  UNL1       -0.0043
     14 C         141.8306  140.8359  168.5178 C.ar    1  UNL1        0.0035
     15 C         140.4051  141.0036  168.0819 C.ar    1  UNL1        0.0714
     16 C         140.0838  141.8215  166.8663 C.ar    1  UNL1        0.0035
     17 C         141.1880  142.4717  166.0865 C.ar    1  UNL1       -0.0043
     18 C         139.3009  140.3533  168.8617 C.3     1  UNL1        0.4186
     19 F         138.1968  139.7031  169.6414 F       1  UNL1       -0.1659
     20 F         139.6064  141.2391  170.0330 F       1  UNL1       -0.1659
     21 F         138.9954  139.4676  167.6904 F       1  UNL1       -0.1659
     22 S         141.2371  144.5210  158.6103 S.O2    1  UNL1        0.0634
     23 O         142.0647  145.7644  158.4720 O.2     1  UNL1       -0.1528
     24 O         140.4094  143.2777  158.7486 O.2     1  UNL1       -0.1528
     25 C         140.3485  144.9885  157.4958 C.ar    1  UNL1        0.1220
     26 C         139.7627  143.9950  156.5367 C.ar    1  UNL1        0.0237
     27 C         138.8742  144.4625  155.4222 C.ar    1  UNL1        0.0726
     28 C         138.5716  145.9234  155.2669 C.ar    1  UNL1        0.0049
     29 C         139.1574  146.9168  156.2259 C.ar    1  UNL1        0.0415
     30 C         140.0458  146.4494  157.3404 C.ar    1  UNL1        0.0209
     31 C         138.2884  143.4690  154.4631 C.3     1  UNL1        0.4186
     32 F         137.7026  142.4756  153.5040 F       1  UNL1       -0.1659
     33 F         139.5925  142.7285  154.4336 F       1  UNL1       -0.1659
     34 F         136.9842  144.2096  154.4926 F       1  UNL1       -0.1659
     35 C         138.8547  148.3777  156.0706 C.3     1  UNL1        0.3092
     36 F         138.6129  148.4847  157.5471 F       1  UNL1       -0.1969
     37 F         139.0965  148.2708  154.5941 F       1  UNL1       -0.1969
     38 C         138.5520  149.8386  155.9152 C.3     1  UNL1        0.2088
     39 O         139.6599  150.8467  155.9942 O.3     1  UNL1       -0.3769
     40 H         140.0290  150.8519  156.8912 H       1  UNL1        0.2107
@<TRIPOS>BOND
     1     1     2    2
     2     9     2    1
     3     9    10    1
     4    10    11    1
     5    11    12    1
     6    12    13   ar
     7    13    14   ar
     8    14    15   ar
     9    15    18    1
    10    18    19    1
    11    18    20    1
    12    18    21    1
    13    15    16   ar
    14    16    17   ar
    15     2     3   am
    16     3     4    1
    17     4     5    1
    18     5     6    1
    19     6    22    1
    20    22    23    2
    21    22    24    2
    22    22    25    1
    23    25    26   ar
    24    26    27   ar
    25    27    31    1
    26    31    32    1
    27    31    33    1
    28    31    34    1
    29    27    28   ar
    30    28    29   ar
    31    29    35    1
    32    35    36    1
    33    35    37    1
    34    35    38    1
    35    38    39    1
    36    29    30   ar
    37     6     7    1
    38     7     8    1
    39    11     9    1
    40    17    12   ar
    41     8     3    1
    42    30    25   ar
    43    39    40    1
@<TRIPOS>MOLECULE
*****
 40 43 0 0 0
SMALL
GASTEIGER

@<TRIPOS>ATOM
      1 O         142.9052  144.7128  158.1669 O.2     1  UNL1       -0.2749
      2 C         141.4886  144.3643  158.5160 C.2     1  UNL1        0.2256
      3 N         141.1746  143.7437  159.8450 N.am    1  UNL1       -0.2766
      4 C         139.7579  143.3952  160.1941 C.3     1  UNL1        0.1126
      5 C         139.4440  142.7746  161.5230 C.3     1  UNL1        0.1173
      6 N         140.5465  142.5024  162.5029 N.3     1  UNL1       -0.1520
      7 C         141.9631  142.8508  162.1539 C.3     1  UNL1        0.1173
      8 C         142.2772  143.4715  160.8249 C.3     1  UNL1        0.1126
      9 C         140.3860  144.6365  157.5361 C.3     1  UNL1        0.0811
     10 C         139.2079  144.1582  156.7403 C.3     1  UNL1        0.0142
     11 C         139.6544  145.5863  156.6346 C.3     1  UNL1        0.0314
     12 C         139.4898  146.9592  156.0532 C.ar    1  UNL1       -0.0220
     13 C         140.0066  147.2578  154.6770 C.ar    1  UNL1       -0.0043
     14 C         139.8420  148.6306  154.0956 C.ar    1  UNL1        0.0035
     15 C         139.1606  149.7050  154.8903 C.ar    1  UNL1        0.0714
     16 C         138.6439  149.4064  156.2665 C.ar    1  UNL1        0.0035
     17 C         138.8085  148.0336  156.8479 C.ar    1  UNL1       -0.0043
     18 C         138.9960  151.0779  154.3088 C.3     1  UNL1        0.4186
     19 F         138.8314  152.4508  153.7274 F       1  UNL1       -0.1659
     20 F         139.9625  150.7308  153.2155 F       1  UNL1       -0.1659
     21 F         138.0296  151.4251  155.4022 F       1  UNL1       -0.1659
     22 S         140.2325  141.8818  163.8319 S.O2    1  UNL1        0.0634
     23 O         139.3779  140.8545  163.1503 O.2     1  UNL1       -0.1528
     24 O         141.0871  142.9090  164.5135 O.2     1  UNL1       -0.1528
     25 C         139.9186  141.2612  165.1610 C.ar    1  UNL1        0.1220
     26 C         139.1666  139.9649  165.2245 C.ar    1  UNL1        0.0237
     27 C         138.8527  139.3443  166.5535 C.ar    1  UNL1        0.0726
     28 C         139.2907  140.0201  167.8190 C.ar    1  UNL1        0.0049
     29 C         140.0427  141.3164  167.7555 C.ar    1  UNL1        0.0415
     30 C         140.3566  141.9369  166.4265 C.ar    1  UNL1        0.0209
     31 C         138.1007  138.0479  166.6171 C.3     1  UNL1        0.4186
     32 F         137.3487  136.7517  166.6807 F       1  UNL1       -0.1659
     33 F         137.1939  138.6253  167.6632 F       1  UNL1       -0.1659
     34 F         139.0075  137.4706  165.5709 F       1  UNL1       -0.1659
     35 C         140.4807  141.9921  169.0210 C.3     1  UNL1        0.3092
     36 F         140.1239  140.7619  169.8014 F       1  UNL1       -0.1969
     37 F         140.8375  143.2224  168.2405 F       1  UNL1       -0.1969
     38 C         140.9187  142.6679  170.2865 C.3     1  UNL1        0.2088
     39 O         140.5414  142.0864  171.6166 O.3     1  UNL1       -0.3769
     40 H         139.5794  142.1367  171.7303 H       1  UNL1        0.2107
@<TRIPOS>BOND
     1     1     2    2
     2     9     2    1
     3     9    10    1
     4    10    11    1
     5    11    12    1
     6    12    13   ar
     7    13    14   ar
     8    14    15   ar
     9    15    18    1
    10    18    19    1
    11    18    20    1
    12    18    21    1
    13    15    16   ar
    14    16    17   ar
    15     2     3   am
    16     3     4    1
    17     4     5    1
    18     5     6    1
    19     6    22    1
    20    22    23    2
    21    22    24    2
    22    22    25    1
    23    25    26   ar
    24    26    27   ar
    25    27    31    1
    26    31    32    1
    27    31    33    1
    28    31    34    1
    29    27    28   ar
    30    28    29   ar
    31    29    35    1
    32    35    36    1
    33    35    37    1
    34    35    38    1
    35    38    39    1
    36    29    30   ar
    37     6     7    1
    38     7     8    1
    39    11     9    1
    40    17    12   ar
    41     8     3    1
    42    30    25   ar
    43    39    40    1
@<TRIPOS>MOLECULE
*****
 40 43 0 0 0
SMALL
GASTEIGER

@<TRIPOS>ATOM
      1 O         137.1139  141.2724  162.9944 O.2     1  UNL1       -0.2749
      2 C         138.1877  140.2600  163.2633 C.2     1  UNL1        0.2256
      3 N         139.0540  139.7695  162.1413 N.am    1  UNL1       -0.2766
      4 C         140.1278  138.7572  162.4102 C.3     1  UNL1        0.1126
      5 C         140.9941  138.2667  161.2882 C.3     1  UNL1        0.1173
      6 N         140.7867  138.7885  159.8973 N.3     1  UNL1       -0.1520
      7 C         139.7130  139.8008  159.6283 C.3     1  UNL1        0.1173
      8 C         138.8466  140.2913  160.7504 C.3     1  UNL1        0.1126
      9 C         138.3951  139.7382  164.6542 C.3     1  UNL1        0.0811
     10 C         138.1394  138.6960  165.7022 C.3     1  UNL1        0.0142
     11 C         139.0100  139.8767  166.0153 C.3     1  UNL1        0.0314
     12 C         139.8677  140.6384  166.9820 C.ar    1  UNL1       -0.0220
     13 C         140.7594  141.7386  166.4877 C.ar    1  UNL1       -0.0043
     14 C         141.6170  142.5002  167.4544 C.ar    1  UNL1        0.0035
     15 C         141.5829  142.1616  168.9153 C.ar    1  UNL1        0.0714
     16 C         140.6911  141.0614  169.4095 C.ar    1  UNL1        0.0035
     17 C         139.8335  140.2998  168.4429 C.ar    1  UNL1       -0.0043
     18 C         142.4406  142.9233  169.8819 C.3     1  UNL1        0.4186
     19 F         143.2982  143.6848  170.8485 F       1  UNL1       -0.1659
     20 F         141.3667  143.9619  170.0164 F       1  UNL1       -0.1659
     21 F         143.5144  141.8846  169.7475 F       1  UNL1       -0.1659
     22 S         141.6530  138.2980  158.7753 S.O2    1  UNL1        0.0634
     23 O         140.5328  138.5356  157.8064 O.2     1  UNL1       -0.1528
     24 O         142.7732  138.0604  159.7441 O.2     1  UNL1       -0.1528
     25 C         142.5194  137.8075  157.6533 C.ar    1  UNL1        0.1220
     26 C         143.1795  138.7892  156.7311 C.ar    1  UNL1        0.0237
     27 C         144.0458  138.2987  155.6092 C.ar    1  UNL1        0.0726
     28 C         144.2521  136.8264  155.4094 C.ar    1  UNL1        0.0049
     29 C         143.5920  135.8447  156.3316 C.ar    1  UNL1        0.0415
     30 C         142.7256  136.3353  157.4536 C.ar    1  UNL1        0.0209
     31 C         144.7059  139.2804  154.6869 C.3     1  UNL1        0.4186
     32 F         145.3660  140.2621  153.7647 F       1  UNL1       -0.1659
     33 F         143.7469  138.9019  153.5975 F       1  UNL1       -0.1659
     34 F         145.6650  139.6590  155.7764 F       1  UNL1       -0.1659
     35 C         143.7982  134.3724  156.1319 C.3     1  UNL1        0.3092
     36 F         144.2048  134.2344  157.5691 F       1  UNL1       -0.1969
     37 F         143.3917  134.5105  154.6946 F       1  UNL1       -0.1969
     38 C         144.0045  132.9002  155.9321 C.3     1  UNL1        0.2088
     39 O         145.3326  132.2791  156.2488 O.3     1  UNL1       -0.3769
     40 H         146.0036  132.6214  155.6377 H       1  UNL1        0.2107
@<TRIPOS>BOND
     1     1     2    2
     2     9     2    1
     3     9    10    1
     4    10    11    1
     5    11    12    1
     6    12    13   ar
     7    13    14   ar
     8    14    15   ar
     9    15    18    1
    10    18    19    1
    11    18    20    1
    12    18    21    1
    13    15    16   ar
    14    16    17   ar
    15     2     3   am
    16     3     4    1
    17     4     5    1
    18     5     6    1
    19     6    22    1
    20    22    23    2
    21    22    24    2
    22    22    25    1
    23    25    26   ar
    24    26    27   ar
    25    27    31    1
    26    31    32    1
    27    31    33    1
    28    31    34    1
    29    27    28   ar
    30    28    29   ar
    31    29    35    1
    32    35    36    1
    33    35    37    1
    34    35    38    1
    35    38    39    1
    36    29    30   ar
    37     6     7    1
    38     7     8    1
    39    11     9    1
    40    17    12   ar
    41     8     3    1
    42    30    25   ar
    43    39    40    1
@<TRIPOS>MOLECULE
*****
 40 43 0 0 0
SMALL
GASTEIGER

@<TRIPOS>ATOM
      1 O         142.2313  145.4999  158.5874 O.2     1  UNL1       -0.2749
      2 C         142.1885  144.0143  158.7910 C.2     1  UNL1        0.2256
      3 N         141.7877  143.4511  160.1222 N.am    1  UNL1       -0.2766
      4 C         141.7449  141.9655  160.3259 C.3     1  UNL1        0.1126
      5 C         141.3442  141.4023  161.6571 C.3     1  UNL1        0.1173
      6 N         140.9863  142.3245  162.7847 N.3     1  UNL1       -0.1520
      7 C         141.0291  143.8100  162.5810 C.3     1  UNL1        0.1173
      8 C         141.4298  144.3733  161.2498 C.3     1  UNL1        0.1126
      9 C         142.5464  143.0921  157.6635 C.3     1  UNL1        0.0811
     10 C         142.1314  142.1251  156.5946 C.3     1  UNL1        0.0142
     11 C         143.5813  142.4619  156.7794 C.3     1  UNL1        0.0314
     12 C         145.0161  142.2925  156.3757 C.ar    1  UNL1       -0.0220
     13 C         145.3543  141.7183  155.0318 C.ar    1  UNL1       -0.0043
     14 C         146.7889  141.5489  154.6282 C.ar    1  UNL1        0.0035
     15 C         147.8854  141.9538  155.5683 C.ar    1  UNL1        0.0714
     16 C         147.5472  142.5279  156.9121 C.ar    1  UNL1        0.0035
     17 C         146.1126  142.6973  157.3158 C.ar    1  UNL1       -0.0043
     18 C         149.3201  141.7844  155.1646 C.3     1  UNL1        0.4186
     19 F         150.7548  141.6150  154.7608 F       1  UNL1       -0.1659
     20 F         149.7542  142.1522  156.5524 F       1  UNL1       -0.1659
     21 F         148.8861  141.4165  153.7767 F       1  UNL1       -0.1659
     22 S         140.5855  141.7613  164.1159 S.O2    1  UNL1        0.0634
     23 O         142.0141  141.8177  164.5698 O.2     1  UNL1       -0.1528
     24 O         139.1570  141.7048  163.6619 O.2     1  UNL1       -0.1528
     25 C         140.1847  141.1980  165.4471 C.ar    1  UNL1        0.1220
     26 C         139.2292  140.0438  165.5162 C.ar    1  UNL1        0.0237
     27 C         138.8285  139.4806  166.8474 C.ar    1  UNL1        0.0726
     28 C         139.3832  140.0715  168.1095 C.ar    1  UNL1        0.0049
     29 C         140.3387  141.2257  168.0404 C.ar    1  UNL1        0.0415
     30 C         140.7395  141.7890  166.7092 C.ar    1  UNL1        0.0209
     31 C         137.8729  138.3263  166.9165 C.3     1  UNL1        0.4186
     32 F         136.9174  137.1721  166.9856 F       1  UNL1       -0.1659
     33 F         137.3861  138.8093  168.2505 F       1  UNL1       -0.1659
     34 F         138.3598  137.8433  165.5824 F       1  UNL1       -0.1659
     35 C         140.8935  141.8167  169.3026 C.3     1  UNL1        0.3092
     36 F         139.9705  142.9903  169.1587 F       1  UNL1       -0.1969
     37 F         141.8165  140.6431  169.4464 F       1  UNL1       -0.1969
     38 C         141.4482  142.4077  170.5647 C.3     1  UNL1        0.2088
     39 O         140.7354  142.1977  171.8677 O.3     1  UNL1       -0.3769
     40 H         139.8760  142.6469  171.8422 H       1  UNL1        0.2107
@<TRIPOS>BOND
     1     1     2    2
     2     9     2    1
     3     9    10    1
     4    10    11    1
     5    11    12    1
     6    12    13   ar
     7    13    14   ar
     8    14    15   ar
     9    15    18    1
    10    18    19    1
    11    18    20    1
    12    18    21    1
    13    15    16   ar
    14    16    17   ar
    15     2     3   am
    16     3     4    1
    17     4     5    1
    18     5     6    1
    19     6    22    1
    20    22    23    2
    21    22    24    2
    22    22    25    1
    23    25    26   ar
    24    26    27   ar
    25    27    31    1
    26    31    32    1
    27    31    33    1
    28    31    34    1
    29    27    28   ar
    30    28    29   ar
    31    29    35    1
    32    35    36    1
    33    35    37    1
    34    35    38    1
    35    38    39    1
    36    29    30   ar
    37     6     7    1
    38     7     8    1
    39    11     9    1
    40    17    12   ar
    41     8     3    1
    42    30    25   ar
    43    39    40    1
@<TRIPOS>MOLECULE
*****
 40 43 0 0 0
SMALL
GASTEIGER

@<TRIPOS>ATOM
      1 O         138.5354  137.5205  155.4525 O.2     1  UNL1       -0.2749
      2 C         139.8866  137.0858  155.9379 C.2     1  UNL1        0.2256
      3 N         140.4348  137.6349  157.2215 N.am    1  UNL1       -0.2766
      4 C         141.7859  137.2001  157.7069 C.3     1  UNL1        0.1126
      5 C         142.3341  137.7492  158.9906 C.3     1  UNL1        0.1173
      6 N         141.5313  138.7331  159.7889 N.3     1  UNL1       -0.1520
      7 C         140.1803  139.1679  159.3036 C.3     1  UNL1        0.1173
      8 C         139.6320  138.6188  158.0199 C.3     1  UNL1        0.1126
      9 C         140.6894  136.1019  155.1395 C.3     1  UNL1        0.0811
     10 C         141.1830  135.5986  153.8155 C.3     1  UNL1        0.0142
     11 C         141.5863  134.9011  155.0807 C.3     1  UNL1        0.0314
     12 C         142.3371  133.8050  155.7773 C.ar    1  UNL1       -0.0220
     13 C         143.5214  134.1358  156.6364 C.ar    1  UNL1       -0.0043
     14 C         144.2721  133.0398  157.3329 C.ar    1  UNL1        0.0035
     15 C         143.8385  131.6130  157.1703 C.ar    1  UNL1        0.0714
     16 C         142.6543  131.2823  156.3112 C.ar    1  UNL1        0.0035
     17 C         141.9036  132.3783  155.6147 C.ar    1  UNL1       -0.0043
     18 C         144.5893  130.5170  157.8669 C.3     1  UNL1        0.4186
     19 F         145.3401  129.4211  158.5634 F       1  UNL1       -0.1659
     20 F         143.5312  129.5343  157.4612 F       1  UNL1       -0.1659
     21 F         145.6474  131.4997  158.2726 F       1  UNL1       -0.1659
     22 S         142.0795  139.2823  161.0726 S.O2    1  UNL1        0.0634
     23 O         141.5715  140.6454  160.7065 O.2     1  UNL1       -0.1528
     24 O         142.5875  137.9192  161.4387 O.2     1  UNL1       -0.1528
     25 C         142.6278  139.8314  162.3564 C.ar    1  UNL1        0.1220
     26 C         142.9490  138.9052  163.4917 C.ar    1  UNL1        0.0237
     27 C         143.4972  139.4543  164.7754 C.ar    1  UNL1        0.0726
     28 C         143.7243  140.9296  164.9237 C.ar    1  UNL1        0.0049
     29 C         143.4031  141.8558  163.7884 C.ar    1  UNL1        0.0415
     30 C         142.8548  141.3066  162.5047 C.ar    1  UNL1        0.0209
     31 C         143.8185  138.5282  165.9108 C.3     1  UNL1        0.4186
     32 F         144.1397  137.6020  167.0461 F       1  UNL1       -0.1659
     33 F         142.3689  138.4966  166.2951 F       1  UNL1       -0.1659
     34 F         145.2681  138.5597  165.5264 F       1  UNL1       -0.1659
     35 C         143.6301  143.3311  163.9367 C.3     1  UNL1        0.3092
     36 F         144.6344  143.0676  165.0193 F       1  UNL1       -0.1969
     37 F         142.6258  143.5945  162.8541 F       1  UNL1       -0.1969
     38 C         143.8571  144.8063  164.0851 C.3     1  UNL1        0.2088
     39 O         143.9444  145.6779  162.8674 O.3     1  UNL1       -0.3769
     40 H         144.7351  145.4425  162.3573 H       1  UNL1        0.2107
@<TRIPOS>BOND
     1     1     2    2
     2     9     2    1
     3     9    10    1
     4    10    11    1
     5    11    12    1
     6    12    13   ar
     7    13    14   ar
     8    14    15   ar
     9    15    18    1
    10    18    19    1
    11    18    20    1
    12    18    21    1
    13    15    16   ar
    14    16    17   ar
    15     2     3   am
    16     3     4    1
    17     4     5    1
    18     5     6    1
    19     6    22    1
    20    22    23    2
    21    22    24    2
    22    22    25    1
    23    25    26   ar
    24    26    27   ar
    25    27    31    1
    26    31    32    1
    27    31    33    1
    28    31    34    1
    29    27    28   ar
    30    28    29   ar
    31    29    35    1
    32    35    36    1
    33    35    37    1
    34    35    38    1
    35    38    39    1
    36    29    30   ar
    37     6     7    1
    38     7     8    1
    39    11     9    1
    40    17    12   ar
    41     8     3    1
    42    30    25   ar
    43    39    40    1
@<TRIPOS>MOLECULE
*****
 40 43 0 0 0
SMALL
GASTEIGER

@<TRIPOS>ATOM
      1 O         142.9662  145.0977  157.6785 O.2     1  UNL1       -0.2749
      2 C         141.5620  144.8329  158.1348 C.2     1  UNL1        0.2256
      3 N         141.3114  144.2688  159.5018 N.am    1  UNL1       -0.2766
      4 C         139.9072  144.0040  159.9581 C.3     1  UNL1        0.1126
      5 C         139.6566  143.4399  161.3252 C.3     1  UNL1        0.1173
      6 N         140.8102  143.1406  162.2360 N.3     1  UNL1       -0.1520
      7 C         142.2144  143.4053  161.7798 C.3     1  UNL1        0.1173
      8 C         142.4650  143.9695  160.4127 C.3     1  UNL1        0.1126
      9 C         140.4084  145.1323  157.2239 C.3     1  UNL1        0.0811
     10 C         139.2038  144.6707  156.4586 C.3     1  UNL1        0.0142
     11 C         139.6151  146.1124  156.4116 C.3     1  UNL1        0.0314
     12 C         139.3945  147.5107  155.9154 C.ar    1  UNL1       -0.0220
     13 C         138.6690  148.5050  156.7726 C.ar    1  UNL1       -0.0043
     14 C         138.4485  149.9033  156.2764 C.ar    1  UNL1        0.0035
     15 C         138.9534  150.3072  154.9229 C.ar    1  UNL1        0.0714
     16 C         139.6789  149.3128  154.0657 C.ar    1  UNL1        0.0035
     17 C         139.8995  147.9146  154.5619 C.ar    1  UNL1       -0.0043
     18 C         138.7329  151.7055  154.4267 C.3     1  UNL1        0.4186
     19 F         138.5123  153.1037  153.9305 F       1  UNL1       -0.1659
     20 F         138.2833  152.1206  155.7962 F       1  UNL1       -0.1659
     21 F         139.1824  151.2904  153.0572 F       1  UNL1       -0.1659
     22 S         140.5596  142.5765  163.6031 S.O2    1  UNL1        0.0634
     23 O         141.0251  143.8625  164.2192 O.2     1  UNL1       -0.1528
     24 O         140.0942  141.2905  162.9871 O.2     1  UNL1       -0.1528
     25 C         140.3090  142.0123  164.9702 C.ar    1  UNL1        0.1220
     26 C         140.8737  142.6972  166.1793 C.ar    1  UNL1        0.0237
     27 C         140.6231  142.1330  167.5464 C.ar    1  UNL1        0.0726
     28 C         139.8077  140.8839  167.7043 C.ar    1  UNL1        0.0049
     29 C         139.2430  140.1990  166.4952 C.ar    1  UNL1        0.0415
     30 C         139.4937  140.7632  165.1282 C.ar    1  UNL1        0.0209
     31 C         141.1878  142.8179  168.7555 C.3     1  UNL1        0.4186
     32 F         141.7525  143.5028  169.9647 F       1  UNL1       -0.1659
     33 F         142.4191  141.9664  168.6628 F       1  UNL1       -0.1659
     34 F         139.9564  143.6695  168.8483 F       1  UNL1       -0.1659
     35 C         138.4277  138.9499  166.6532 C.3     1  UNL1        0.3092
     36 F         138.3170  138.8335  165.1618 F       1  UNL1       -0.1969
     37 F         138.5384  139.0662  168.1446 F       1  UNL1       -0.1969
     38 C         137.6124  137.7007  166.8111 C.3     1  UNL1        0.2088
     39 O         136.3811  137.7121  167.6677 O.3     1  UNL1       -0.3769
     40 H         136.6322  137.8601  168.5929 H       1  UNL1        0.2107
@<TRIPOS>BOND
     1     1     2    2
     2     9     2    1
     3     9    10    1
     4    10    11    1
     5    11    12    1
     6    12    13   ar
     7    13    14   ar
     8    14    15   ar
     9    15    18    1
    10    18    19    1
    11    18    20    1
    12    18    21    1
    13    15    16   ar
    14    16    17   ar
    15     2     3   am
    16     3     4    1
    17     4     5    1
    18     5     6    1
    19     6    22    1
    20    22    23    2
    21    22    24    2
    22    22    25    1
    23    25    26   ar
    24    26    27   ar
    25    27    31    1
    26    31    32    1
    27    31    33    1
    28    31    34    1
    29    27    28   ar
    30    28    29   ar
    31    29    35    1
    32    35    36    1
    33    35    37    1
    34    35    38    1
    35    38    39    1
    36    29    30   ar
    37     6     7    1
    38     7     8    1
    39    11     9    1
    40    17    12   ar
    41     8     3    1
    42    30    25   ar
    43    39    40    1
@<TRIPOS>MOLECULE
*****
 40 43 0 0 0
SMALL
GASTEIGER

@<TRIPOS>ATOM
      1 O         144.4123  139.7463  156.9776 O.2     1  UNL1       -0.2749
      2 C         143.2182  139.0047  157.5013 C.2     1  UNL1        0.2256
      3 N         142.8037  139.1666  158.9338 N.am    1  UNL1       -0.2766
      4 C         141.6096  138.4250  159.4575 C.3     1  UNL1        0.1126
      5 C         141.1951  138.5870  160.8899 C.3     1  UNL1        0.1173
      6 N         141.9747  139.4905  161.7987 N.3     1  UNL1       -0.1520
      7 C         143.1688  140.2321  161.2751 C.3     1  UNL1        0.1173
      8 C         143.5833  140.0702  159.8425 C.3     1  UNL1        0.1126
      9 C         142.4387  138.1012  156.5925 C.3     1  UNL1        0.0811
     10 C         141.4371  137.9164  155.4913 C.3     1  UNL1        0.0142
     11 C         142.0900  136.7210  156.1197 C.3     1  UNL1        0.0314
     12 C         142.2657  135.2340  156.2096 C.ar    1  UNL1       -0.0220
     13 C         143.2629  134.6531  157.1677 C.ar    1  UNL1       -0.0043
     14 C         143.4385  133.1662  157.2575 C.ar    1  UNL1        0.0035
     15 C         142.6169  132.2601  156.3892 C.ar    1  UNL1        0.0714
     16 C         141.6197  132.8410  155.4310 C.ar    1  UNL1        0.0035
     17 C         141.4441  134.3279  155.3412 C.ar    1  UNL1       -0.0043
     18 C         142.7926  130.7731  156.4790 C.3     1  UNL1        0.4186
     19 F         142.9682  129.2862  156.5689 F       1  UNL1       -0.1659
     20 F         141.7193  130.5840  155.4484 F       1  UNL1       -0.1659
     21 F         143.8658  130.9622  157.5097 F       1  UNL1       -0.1659
     22 S         141.5602  139.6525  163.2311 S.O2    1  UNL1        0.0634
     23 O         140.2994  138.8890  162.9527 O.2     1  UNL1       -0.1528
     24 O         142.8209  140.4160  163.5096 O.2     1  UNL1       -0.1528
     25 C         141.1458  139.8145  164.6637 C.ar    1  UNL1        0.1220
     26 C         139.8540  139.2211  165.1424 C.ar    1  UNL1        0.0237
     27 C         139.4396  139.3831  166.5748 C.ar    1  UNL1        0.0726
     28 C         140.3169  140.1385  167.5286 C.ar    1  UNL1        0.0049
     29 C         141.6087  140.7319  167.0499 C.ar    1  UNL1        0.0415
     30 C         142.0231  140.5699  165.6174 C.ar    1  UNL1        0.0209
     31 C         138.1478  138.7896  167.0536 C.3     1  UNL1        0.4186
     32 F         136.8561  138.1962  167.5323 F       1  UNL1       -0.1659
     33 F         137.9956  138.0675  165.7477 F       1  UNL1       -0.1659
     34 F         138.3001  139.5118  168.3596 F       1  UNL1       -0.1659
     35 C         142.4860  141.4873  168.0036 C.3     1  UNL1        0.3092
     36 F         142.7300  142.5301  166.9533 F       1  UNL1       -0.1969
     37 F         142.2421  140.4446  169.0539 F       1  UNL1       -0.1969
     38 C         143.3634  142.2428  168.9573 C.3     1  UNL1        0.2088
     39 O         143.6870  141.6598  170.3009 O.3     1  UNL1       -0.3769
     40 H         142.8779  141.6052  170.8332 H       1  UNL1        0.2107
@<TRIPOS>BOND
     1     1     2    2
     2     9     2    1
     3     9    10    1
     4    10    11    1
     5    11    12    1
     6    12    13   ar
     7    13    14   ar
     8    14    15   ar
     9    15    18    1
    10    18    19    1
    11    18    20    1
    12    18    21    1
    13    15    16   ar
    14    16    17   ar
    15     2     3   am
    16     3     4    1
    17     4     5    1
    18     5     6    1
    19     6    22    1
    20    22    23    2
    21    22    24    2
    22    22    25    1
    23    25    26   ar
    24    26    27   ar
    25    27    31    1
    26    31    32    1
    27    31    33    1
    28    31    34    1
    29    27    28   ar
    30    28    29   ar
    31    29    35    1
    32    35    36    1
    33    35    37    1
    34    35    38    1
    35    38    39    1
    36    29    30   ar
    37     6     7    1
    38     7     8    1
    39    11     9    1
    40    17    12   ar
    41     8     3    1
    42    30    25   ar
    43    39    40    1
@<TRIPOS>MOLECULE
*****
 40 43 0 0 0
SMALL
GASTEIGER

@<TRIPOS>ATOM
      1 O         145.9387  141.7471  162.8117 O.2     1  UNL1       -0.2749
      2 C         144.7676  142.6357  163.1099 C.2     1  UNL1        0.2256
      3 N         143.8507  143.0647  162.0030 N.am    1  UNL1       -0.2766
      4 C         142.6796  143.9534  162.3011 C.3     1  UNL1        0.1126
      5 C         141.7626  144.3823  161.1942 C.3     1  UNL1        0.1173
      6 N         142.0168  143.9226  159.7892 N.3     1  UNL1       -0.1520
      7 C         143.1878  143.0340  159.4910 C.3     1  UNL1        0.1173
      8 C         144.1048  142.6050  160.5979 C.3     1  UNL1        0.1126
      9 C         144.5135  143.0954  164.5149 C.3     1  UNL1        0.0811
     10 C         144.8547  143.9872  165.6716 C.3     1  UNL1        0.0142
     11 C         143.7320  142.9998  165.7916 C.3     1  UNL1        0.0314
     12 C         142.6326  142.3744  166.5981 C.ar    1  UNL1       -0.0220
     13 C         141.3659  141.9350  165.9255 C.ar    1  UNL1       -0.0043
     14 C         140.2666  141.3096  166.7320 C.ar    1  UNL1        0.0035
     15 C         140.4340  141.1237  168.2110 C.ar    1  UNL1        0.0714
     16 C         141.7006  141.5632  168.8835 C.ar    1  UNL1        0.0035
     17 C         142.7999  142.1885  168.0771 C.ar    1  UNL1       -0.0043
     18 C         139.3345  140.4983  169.0174 C.3     1  UNL1        0.4186
     19 F         138.2352  139.8730  169.8238 F       1  UNL1       -0.1659
     20 F         139.7641  141.2899  170.2169 F       1  UNL1       -0.1659
     21 F         138.9050  139.7068  167.8179 F       1  UNL1       -0.1659
     22 S         141.0999  144.3516  158.6823 S.O2    1  UNL1        0.0634
     23 O         139.9978  144.5640  159.6775 O.2     1  UNL1       -0.1528
     24 O         142.2019  144.1392  157.6871 O.2     1  UNL1       -0.1528
     25 C         140.1829  144.7805  157.5753 C.ar    1  UNL1        0.1220
     26 C         140.0796  146.2308  157.2066 C.ar    1  UNL1        0.0237
     27 C         139.1627  146.6597  156.0997 C.ar    1  UNL1        0.0726
     28 C         138.3492  145.6383  155.3615 C.ar    1  UNL1        0.0049
     29 C         138.4525  144.1880  155.7302 C.ar    1  UNL1        0.0415
     30 C         139.3694  143.7592  156.8371 C.ar    1  UNL1        0.0209
     31 C         139.0593  148.1100  155.7309 C.3     1  UNL1        0.4186
     32 F         138.9559  149.5603  155.3622 F       1  UNL1       -0.1659
     33 F         138.5046  148.4161  157.0905 F       1  UNL1       -0.1659
     34 F         139.6140  147.8039  154.3713 F       1  UNL1       -0.1659
     35 C         137.6390  143.1667  154.9920 C.3     1  UNL1        0.3092
     36 F         136.3816  143.8836  155.3857 F       1  UNL1       -0.1969
     37 F         138.8964  142.4498  154.5982 F       1  UNL1       -0.1969
     38 C         136.8255  142.1453  154.2537 C.3     1  UNL1        0.2088
     39 O         137.3751  141.5008  153.0158 O.3     1  UNL1       -0.3769
     40 H         137.4692  142.1684  152.3183 H       1  UNL1        0.2107
@<TRIPOS>BOND
     1     1     2    2
     2     9     2    1
     3     9    10    1
     4    10    11    1
     5    11    12    1
     6    12    13   ar
     7    13    14   ar
     8    14    15   ar
     9    15    18    1
    10    18    19    1
    11    18    20    1
    12    18    21    1
    13    15    16   ar
    14    16    17   ar
    15     2     3   am
    16     3     4    1
    17     4     5    1
    18     5     6    1
    19     6    22    1
    20    22    23    2
    21    22    24    2
    22    22    25    1
    23    25    26   ar
    24    26    27   ar
    25    27    31    1
    26    31    32    1
    27    31    33    1
    28    31    34    1
    29    27    28   ar
    30    28    29   ar
    31    29    35    1
    32    35    36    1
    33    35    37    1
    34    35    38    1
    35    38    39    1
    36    29    30   ar
    37     6     7    1
    38     7     8    1
    39    11     9    1
    40    17    12   ar
    41     8     3    1
    42    30    25   ar
    43    39    40    1
@<TRIPOS>MOLECULE
*****
 40 43 0 0 0
SMALL
GASTEIGER

@<TRIPOS>ATOM
      1 O         137.5158  143.8811  155.6136 O.2     1  UNL1       -0.2749
      2 C         137.0870  142.5444  156.1422 C.2     1  UNL1        0.2256
      3 N         137.6403  142.0392  157.4416 N.am    1  UNL1       -0.2766
      4 C         137.2115  140.7024  157.9702 C.3     1  UNL1        0.1126
      5 C         137.7648  140.1972  159.2696 C.3     1  UNL1        0.1173
      6 N         138.7469  141.0286  160.0405 N.3     1  UNL1       -0.1520
      7 C         139.1757  142.3653  159.5120 C.3     1  UNL1        0.1173
      8 C         138.6224  142.8706  158.2125 C.3     1  UNL1        0.1126
      9 C         136.1049  141.7130  155.3713 C.3     1  UNL1        0.0811
     10 C         135.7137  141.0003  154.1108 C.3     1  UNL1        0.0142
     11 C         134.7953  140.9856  155.2966 C.3     1  UNL1        0.0314
     12 C         133.5088  140.5571  155.9383 C.ar    1  UNL1       -0.0220
     13 C         132.2179  141.2073  155.5375 C.ar    1  UNL1       -0.0043
     14 C         130.9315  140.7788  156.1791 C.ar    1  UNL1        0.0035
     15 C         130.9361  139.7002  157.2215 C.ar    1  UNL1        0.0714
     16 C         132.2271  139.0500  157.6222 C.ar    1  UNL1        0.0035
     17 C         133.5134  139.4785  156.9806 C.ar    1  UNL1       -0.0043
     18 C         129.6497  139.2717  157.8631 C.3     1  UNL1        0.4186
     19 F         128.3633  138.8433  158.5046 F       1  UNL1       -0.1659
     20 F         130.3994  138.2834  158.7063 F       1  UNL1       -0.1659
     21 F         128.9000  140.2600  157.0198 F       1  UNL1       -0.1659
     22 S         139.3002  140.5233  161.3399 S.O2    1  UNL1        0.0634
     23 O         140.6157  140.2492  160.6732 O.2     1  UNL1       -0.1528
     24 O         137.9848  140.7975  162.0066 O.2     1  UNL1       -0.1528
     25 C         139.8535  140.0181  162.6394 C.ar    1  UNL1        0.1220
     26 C         141.3317  139.8199  162.7987 C.ar    1  UNL1        0.0237
     27 C         141.8849  139.3147  164.0982 C.ar    1  UNL1        0.0726
     28 C         140.9599  139.0076  165.2384 C.ar    1  UNL1        0.0049
     29 C         139.4816  139.2057  165.0791 C.ar    1  UNL1        0.0415
     30 C         138.9284  139.7110  163.7796 C.ar    1  UNL1        0.0209
     31 C         143.3633  139.1165  164.2576 C.3     1  UNL1        0.4186
     32 F         144.8415  138.9183  164.4169 F       1  UNL1       -0.1659
     33 F         143.6048  139.9179  163.0128 F       1  UNL1       -0.1659
     34 F         143.1217  138.3151  165.5023 F       1  UNL1       -0.1659
     35 C         138.5566  138.8987  166.2192 C.3     1  UNL1        0.3092
     36 F         138.2486  137.5631  165.6097 F       1  UNL1       -0.1969
     37 F         138.8645  140.2342  166.8288 F       1  UNL1       -0.1969
     38 C         137.6315  138.5916  167.3594 C.3     1  UNL1        0.2088
     39 O         136.8720  137.2983  167.3815 O.3     1  UNL1       -0.3769
     40 H         136.2367  137.2838  166.6487 H       1  UNL1        0.2107
@<TRIPOS>BOND
     1     1     2    2
     2     9     2    1
     3     9    10    1
     4    10    11    1
     5    11    12    1
     6    12    13   ar
     7    13    14   ar
     8    14    15   ar
     9    15    18    1
    10    18    19    1
    11    18    20    1
    12    18    21    1
    13    15    16   ar
    14    16    17   ar
    15     2     3   am
    16     3     4    1
    17     4     5    1
    18     5     6    1
    19     6    22    1
    20    22    23    2
    21    22    24    2
    22    22    25    1
    23    25    26   ar
    24    26    27   ar
    25    27    31    1
    26    31    32    1
    27    31    33    1
    28    31    34    1
    29    27    28   ar
    30    28    29   ar
    31    29    35    1
    32    35    36    1
    33    35    37    1
    34    35    38    1
    35    38    39    1
    36    29    30   ar
    37     6     7    1
    38     7     8    1
    39    11     9    1
    40    17    12   ar
    41     8     3    1
    42    30    25   ar
    43    39    40    1
