@<TRIPOS>MOLECULE
*****
 35 38 0 0 0
SMALL
GASTEIGER

@<TRIPOS>ATOM
      1 C         140.5431  140.0247  165.4467 C.ar    1  UNL1        0.0844
      2 C         139.7590  139.0025  166.2150 C.ar    1  UNL1        0.1147
      3 N         139.3406  139.2845  167.6275 N.ar    1  UNL1       -0.2425
      4 C         139.7062  140.5888  168.2719 C.ar    1  UNL1        0.0827
      5 C         139.2878  140.8708  169.6845 C.ar    1  UNL1        0.0214
      6 C         139.6535  142.1750  170.3288 C.ar    1  UNL1        0.0312
      7 C         140.4376  143.1973  169.5605 C.ar    1  UNL1        0.1403
      8 F         140.8033  144.5016  170.2049 F       1  UNL1       -0.2042
      9 C         140.8560  142.9153  168.1480 C.ar    1  UNL1        0.0324
     10 C         140.4903  141.6110  167.5037 C.ar    1  UNL1        0.0345
     11 C         140.9087  141.3290  166.0910 C.ar    1  UNL1        0.0646
     12 N         140.5311  139.9343  161.4791 N.am    1  UNL1       -0.2667
     13 C         140.1127  140.2164  162.8917 C.2     1  UNL1        0.3083
     14 O         138.8455  140.9722  163.1618 O.2     1  UNL1       -0.2521
     15 N         140.9615  139.7427  164.0341 N.am    1  UNL1       -0.2658
     16 H         141.3628  139.4383  161.3019 H       1  UNL1        0.1565
     17 H         141.7932  139.2466  163.8568 H       1  UNL1        0.1565
     18 C         137.9848  141.3554  158.0518 C.ar    1  UNL1        0.2359
     19 N         137.7373  140.0074  158.6615 N.ar    1  UNL1       -0.2081
     20 C         138.5861  139.5338  159.8039 C.ar    1  UNL1        0.1167
     21 C         139.6823  140.4081  160.3367 C.ar    1  UNL1        0.0720
     22 C         139.9298  141.7560  159.7270 C.ar    1  UNL1        0.0324
     23 C         139.0810  142.2297  158.5846 C.ar    1  UNL1        0.1120
     24 CL        139.3285  143.5777  157.9748 Cl      1  UNL1       -0.0773
     25 C         135.9766  140.9999  156.4422 C.3     1  UNL1        0.2543
     26 O         137.1360  141.8291  156.9093 O.3     1  UNL1       -0.4556
     27 N         141.6928  142.3512  165.3228 N.pl3   1  UNL1       -0.3050
     28 C         143.1875  142.3945  165.4414 C.3     1  UNL1        0.1122
     29 C         140.9822  143.3302  164.4358 C.3     1  UNL1        0.0889
     30 C         139.7334  144.0082  164.9163 C.3     1  UNL1        0.0226
     31 C         139.0228  144.9871  164.0294 C.3     1  UNL1        0.0191
     32 C         139.5609  145.2882  162.6621 C.3     1  UNL1        0.0722
     33 N         140.8097  144.6102  162.1816 N.3     1  UNL1       -0.2701
     34 C         141.3479  144.9112  160.8141 C.3     1  UNL1        0.0897
     35 C         141.5204  143.6312  163.0684 C.3     1  UNL1        0.0920
@<TRIPOS>BOND
     1    25    26    1
     2    26    18    1
     3    18    19   ar
     4    19    20   ar
     5    20    21   ar
     6    21    12    1
     7    12    13   am
     8    13    14    2
     9    13    15   am
    10    15     1    1
    11     1     2   ar
    12     2     3   ar
    13     3     4   ar
    14     4     5   ar
    15     5     6   ar
    16     6     7   ar
    17     7     8    1
    18     7     9   ar
    19     9    10   ar
    20    10    11   ar
    21    11    27    1
    22    27    28    1
    23    27    29    1
    24    29    30    1
    25    30    31    1
    26    31    32    1
    27    32    33    1
    28    33    34    1
    29    33    35    1
    30    21    22   ar
    31    22    23   ar
    32    23    24    1
    33    23    18   ar
    34    11     1   ar
    35    35    29    1
    36    10     4   ar
    37    12    16    1
    38    15    17    1
@<TRIPOS>MOLECULE
*****
 35 38 0 0 0
SMALL
GASTEIGER

@<TRIPOS>ATOM
      1 C         141.9339  139.5366  165.4413 C.ar    1  UNL1        0.0844
      2 C         143.1815  139.5650  166.2737 C.ar    1  UNL1        0.1147
      3 N         143.0868  139.7289  167.7617 N.ar    1  UNL1       -0.2425
      4 C         141.7444  139.8644  168.4174 C.ar    1  UNL1        0.0827
      5 C         141.6497  140.0283  169.9054 C.ar    1  UNL1        0.0214
      6 C         140.3074  140.1637  170.5610 C.ar    1  UNL1        0.0312
      7 C         139.0599  140.1354  169.7286 C.ar    1  UNL1        0.1403
      8 F         137.7176  140.2709  170.3843 F       1  UNL1       -0.2042
      9 C         139.1546  139.9715  168.2407 C.ar    1  UNL1        0.0324
     10 C         140.4969  139.8360  167.5850 C.ar    1  UNL1        0.0345
     11 C         140.5917  139.6721  166.0970 C.ar    1  UNL1        0.0646
     12 N         142.1978  140.4180  161.5808 N.am    1  UNL1       -0.2667
     13 C         142.1030  140.5819  163.0688 C.2     1  UNL1        0.3083
     14 O         142.0825  141.9550  163.6723 O.2     1  UNL1       -0.2521
     15 N         142.0287  139.3727  163.9533 N.am    1  UNL1       -0.2658
     16 H         142.2112  139.5167  161.1848 H       1  UNL1        0.1565
     17 H         142.0422  138.4715  163.5572 H       1  UNL1        0.1565
     18 C         142.4208  144.0454  158.9272 C.ar    1  UNL1        0.2359
     19 N         143.6654  143.2710  159.2450 N.ar    1  UNL1       -0.2081
     20 C         143.5911  142.0619  160.1295 C.ar    1  UNL1        0.1167
     21 C         142.2721  141.6272  160.6963 C.ar    1  UNL1        0.0720
     22 C         141.0274  142.4015  160.3785 C.ar    1  UNL1        0.0324
     23 C         141.1017  143.6107  159.4939 C.ar    1  UNL1        0.1120
     24 CL        139.8570  144.3851  159.1761 Cl      1  UNL1       -0.0773
     25 C         142.1650  145.1382  156.5840 C.3     1  UNL1        0.2543
     26 O         142.4951  145.2546  158.0426 O.3     1  UNL1       -0.4556
     27 N         139.3441  139.6437  165.2646 N.pl3   1  UNL1       -0.3050
     28 C         138.6036  138.3544  165.0669 C.3     1  UNL1        0.1122
     29 C         138.8371  140.9048  164.6299 C.3     1  UNL1        0.0889
     30 C         138.0983  140.8436  163.3260 C.3     1  UNL1        0.0226
     31 C         137.5913  142.1045  162.6913 C.3     1  UNL1        0.0191
     32 C         137.8231  143.4267  163.3606 C.3     1  UNL1        0.0722
     33 N         138.5620  143.4879  164.6646 N.3     1  UNL1       -0.2701
     34 C         138.7938  144.8102  165.3339 C.3     1  UNL1        0.0897
     35 C         139.0689  142.2270  165.2992 C.3     1  UNL1        0.0920
@<TRIPOS>BOND
     1    25    26    1
     2    26    18    1
     3    18    19   ar
     4    19    20   ar
     5    20    21   ar
     6    21    12    1
     7    12    13   am
     8    13    14    2
     9    13    15   am
    10    15     1    1
    11     1     2   ar
    12     2     3   ar
    13     3     4   ar
    14     4     5   ar
    15     5     6   ar
    16     6     7   ar
    17     7     8    1
    18     7     9   ar
    19     9    10   ar
    20    10    11   ar
    21    11    27    1
    22    27    28    1
    23    27    29    1
    24    29    30    1
    25    30    31    1
    26    31    32    1
    27    32    33    1
    28    33    34    1
    29    33    35    1
    30    21    22   ar
    31    22    23   ar
    32    23    24    1
    33    23    18   ar
    34    11     1   ar
    35    35    29    1
    36    10     4   ar
    37    12    16    1
    38    15    17    1
@<TRIPOS>MOLECULE
*****
 35 38 0 0 0
SMALL
GASTEIGER

@<TRIPOS>ATOM
      1 C         141.3336  138.6243  165.6147 C.ar    1  UNL1        0.0844
      2 C         142.7664  138.4708  166.0312 C.ar    1  UNL1        0.1147
      3 N         143.2731  139.1815  167.2511 N.ar    1  UNL1       -0.2425
      4 C         142.3469  140.0457  168.0545 C.ar    1  UNL1        0.0827
      5 C         142.8536  140.7564  169.2744 C.ar    1  UNL1        0.0214
      6 C         141.9274  141.6206  170.0778 C.ar    1  UNL1        0.0312
      7 C         140.4946  141.7741  169.6612 C.ar    1  UNL1        0.1403
      8 F         139.5685  142.6383  170.4646 F       1  UNL1       -0.2042
      9 C         139.9880  141.0634  168.4413 C.ar    1  UNL1        0.0324
     10 C         140.9141  140.1992  167.6380 C.ar    1  UNL1        0.0345
     11 C         140.4075  139.4885  166.4180 C.ar    1  UNL1        0.0646
     12 N         140.3265  137.8975  161.8454 N.am    1  UNL1       -0.2667
     13 C         140.8331  138.6082  163.0653 C.2     1  UNL1        0.3083
     14 O         141.3459  140.0136  162.9557 O.2     1  UNL1       -0.2521
     15 N         140.8270  137.9136  164.3947 N.am    1  UNL1       -0.2658
     16 H         139.9900  136.9751  161.9173 H       1  UNL1        0.1565
     17 H         140.4904  136.9912  164.4666 H       1  UNL1        0.1565
     18 C         140.3450  139.9812  157.8570 C.ar    1  UNL1        0.2359
     19 N         141.5791  139.2805  158.3428 N.ar    1  UNL1       -0.2081
     20 C         141.5729  138.5860  159.6723 C.ar    1  UNL1        0.1167
     21 C         140.3327  138.5921  160.5159 C.ar    1  UNL1        0.0720
     22 C         139.0986  139.2928  160.0301 C.ar    1  UNL1        0.0324
     23 C         139.1048  139.9874  158.7007 C.ar    1  UNL1        0.1120
     24 CL        137.8707  140.6882  158.2148 Cl      1  UNL1       -0.0773
     25 C         141.0150  142.0132  156.3831 C.3     1  UNL1        0.2543
     26 O         140.3512  140.6759  156.5275 O.3     1  UNL1       -0.4556
     27 N         138.9747  139.6420  166.0015 N.pl3   1  UNL1       -0.3050
     28 C         137.9252  138.7383  166.5775 C.3     1  UNL1        0.1122
     29 C         138.5914  140.6993  165.0087 C.3     1  UNL1        0.0889
     30 C         137.8125  140.3287  163.7815 C.3     1  UNL1        0.0226
     31 C         137.4292  141.3858  162.7889 C.3     1  UNL1        0.0191
     32 C         137.8248  142.8136  163.0234 C.3     1  UNL1        0.0722
     33 N         138.6037  143.1841  164.2506 N.3     1  UNL1       -0.2701
     34 C         138.9992  144.6120  164.4851 C.3     1  UNL1        0.0897
     35 C         138.9870  142.1270  165.2433 C.3     1  UNL1        0.0920
@<TRIPOS>BOND
     1    25    26    1
     2    26    18    1
     3    18    19   ar
     4    19    20   ar
     5    20    21   ar
     6    21    12    1
     7    12    13   am
     8    13    14    2
     9    13    15   am
    10    15     1    1
    11     1     2   ar
    12     2     3   ar
    13     3     4   ar
    14     4     5   ar
    15     5     6   ar
    16     6     7   ar
    17     7     8    1
    18     7     9   ar
    19     9    10   ar
    20    10    11   ar
    21    11    27    1
    22    27    28    1
    23    27    29    1
    24    29    30    1
    25    30    31    1
    26    31    32    1
    27    32    33    1
    28    33    34    1
    29    33    35    1
    30    21    22   ar
    31    22    23   ar
    32    23    24    1
    33    23    18   ar
    34    11     1   ar
    35    35    29    1
    36    10     4   ar
    37    12    16    1
    38    15    17    1
@<TRIPOS>MOLECULE
*****
 35 38 0 0 0
SMALL
GASTEIGER

@<TRIPOS>ATOM
      1 C         139.3477  140.7547  164.0918 C.ar    1  UNL1        0.0844
      2 C         138.9602  139.4490  164.7202 C.ar    1  UNL1        0.1147
      3 N         139.0711  139.2693  166.2053 N.ar    1  UNL1       -0.2425
      4 C         139.5697  140.3953  167.0619 C.ar    1  UNL1        0.0827
      5 C         139.6806  140.2155  168.5469 C.ar    1  UNL1        0.0214
      6 C         140.1792  141.3414  169.4034 C.ar    1  UNL1        0.0312
      7 C         140.5667  142.6471  168.7750 C.ar    1  UNL1        0.1403
      8 F         141.0653  143.7731  169.6316 F       1  UNL1       -0.2042
      9 C         140.4558  142.8269  167.2899 C.ar    1  UNL1        0.0324
     10 C         139.9573  141.7009  166.4334 C.ar    1  UNL1        0.0345
     11 C         139.8463  141.8807  164.9483 C.ar    1  UNL1        0.0646
     12 N         140.0380  140.3553  160.2041 N.am    1  UNL1       -0.2667
     13 C         140.1490  140.1756  161.6891 C.2     1  UNL1        0.3083
     14 O         141.1722  139.2369  162.2566 O.2     1  UNL1       -0.2521
     15 N         139.2368  140.9344  162.6067 N.am    1  UNL1       -0.2658
     16 H         139.3664  140.9713  159.8317 H       1  UNL1        0.1565
     17 H         138.5652  141.5505  162.2342 H       1  UNL1        0.1565
     18 C         142.7747  138.0787  157.4513 C.ar    1  UNL1        0.2359
     19 N         143.3435  139.0688  158.4241 N.ar    1  UNL1       -0.2081
     20 C         142.4313  139.8276  159.3416 C.ar    1  UNL1        0.1167
     21 C         140.9502  139.5964  159.2865 C.ar    1  UNL1        0.0720
     22 C         140.3814  138.6064  158.3137 C.ar    1  UNL1        0.0324
     23 C         141.2936  137.8475  157.3962 C.ar    1  UNL1        0.1120
     24 CL        140.7248  136.8574  156.4234 Cl      1  UNL1       -0.0773
     25 C         144.2629  137.9932  155.3235 C.3     1  UNL1        0.2543
     26 O         143.6869  137.3198  156.5337 O.3     1  UNL1       -0.4556
     27 N         140.2338  143.1863  164.3198 N.pl3   1  UNL1       -0.3050
     28 C         139.2051  144.2609  164.1278 C.3     1  UNL1        0.1122
     29 C         141.6503  143.4174  163.8834 C.3     1  UNL1        0.0889
     30 C         142.2000  144.8120  163.8284 C.3     1  UNL1        0.0226
     31 C         143.6164  145.0431  163.3920 C.3     1  UNL1        0.0191
     32 C         144.4829  143.8797  163.0106 C.3     1  UNL1        0.0722
     33 N         143.9332  142.4852  163.0655 N.3     1  UNL1       -0.2701
     34 C         144.7998  141.3218  162.6841 C.3     1  UNL1        0.0897
     35 C         142.5168  142.2541  163.5019 C.3     1  UNL1        0.0920
@<TRIPOS>BOND
     1    25    26    1
     2    26    18    1
     3    18    19   ar
     4    19    20   ar
     5    20    21   ar
     6    21    12    1
     7    12    13   am
     8    13    14    2
     9    13    15   am
    10    15     1    1
    11     1     2   ar
    12     2     3   ar
    13     3     4   ar
    14     4     5   ar
    15     5     6   ar
    16     6     7   ar
    17     7     8    1
    18     7     9   ar
    19     9    10   ar
    20    10    11   ar
    21    11    27    1
    22    27    28    1
    23    27    29    1
    24    29    30    1
    25    30    31    1
    26    31    32    1
    27    32    33    1
    28    33    34    1
    29    33    35    1
    30    21    22   ar
    31    22    23   ar
    32    23    24    1
    33    23    18   ar
    34    11     1   ar
    35    35    29    1
    36    10     4   ar
    37    12    16    1
    38    15    17    1
@<TRIPOS>MOLECULE
*****
 35 38 0 0 0
SMALL
GASTEIGER

@<TRIPOS>ATOM
      1 C         141.6879  139.1104  165.2388 C.ar    1  UNL1        0.0844
      2 C         142.9420  138.5617  165.8522 C.ar    1  UNL1        0.1147
      3 N         143.2318  138.7978  167.3048 N.ar    1  UNL1       -0.2425
      4 C         142.2675  139.5826  168.1442 C.ar    1  UNL1        0.0827
      5 C         142.5574  139.8186  169.5968 C.ar    1  UNL1        0.0214
      6 C         141.5931  140.6033  170.4360 C.ar    1  UNL1        0.0312
      7 C         140.3390  141.1519  169.8227 C.ar    1  UNL1        0.1403
      8 F         139.3747  141.9367  170.6620 F       1  UNL1       -0.2042
      9 C         140.0491  140.9159  168.3700 C.ar    1  UNL1        0.0324
     10 C         141.0134  140.1312  167.5308 C.ar    1  UNL1        0.0345
     11 C         140.7236  139.8951  166.0780 C.ar    1  UNL1        0.0646
     12 N         141.8624  139.4005  161.2846 N.am    1  UNL1       -0.2667
     13 C         142.1522  139.6366  162.7373 C.2     1  UNL1        0.3083
     14 O         143.1961  140.6352  163.1411 O.2     1  UNL1       -0.2521
     15 N         141.3981  138.8742  163.7861 N.am    1  UNL1       -0.2658
     16 H         141.1772  138.7451  161.0196 H       1  UNL1        0.1565
     17 H         140.7129  138.2189  163.5210 H       1  UNL1        0.1565
     18 C         144.1247  141.6876  158.1381 C.ar    1  UNL1        0.2359
     19 N         144.4735  140.2565  158.4212 N.ar    1  UNL1       -0.2081
     20 C         143.7194  139.4942  159.4700 C.ar    1  UNL1        0.1167
     21 C         142.6165  140.1629  160.2358 C.ar    1  UNL1        0.0720
     22 C         142.2677  141.5941  159.9527 C.ar    1  UNL1        0.0324
     23 C         143.0218  142.3564  158.9038 C.ar    1  UNL1        0.1120
     24 CL        142.6730  143.7876  158.6207 Cl      1  UNL1       -0.0773
     25 C         146.3204  142.1328  156.8225 C.3     1  UNL1        0.2543
     26 O         144.8788  142.4501  157.0892 O.3     1  UNL1       -0.4556
     27 N         139.4695  140.4437  165.4646 N.pl3   1  UNL1       -0.3050
     28 C         138.2499  139.5781  165.3500 C.3     1  UNL1        0.1122
     29 C         139.4351  141.8579  164.9658 C.3     1  UNL1        0.0889
     30 C         138.1192  142.5336  164.7171 C.3     1  UNL1        0.0226
     31 C         138.0848  143.9478  164.2183 C.3     1  UNL1        0.0191
     32 C         139.3662  144.6863  163.9683 C.3     1  UNL1        0.0722
     33 N         140.6821  144.0106  164.2171 N.3     1  UNL1       -0.2701
     34 C         141.9635  144.7492  163.9670 C.3     1  UNL1        0.0897
     35 C         140.7165  142.5964  164.7158 C.3     1  UNL1        0.0920
@<TRIPOS>BOND
     1    25    26    1
     2    26    18    1
     3    18    19   ar
     4    19    20   ar
     5    20    21   ar
     6    21    12    1
     7    12    13   am
     8    13    14    2
     9    13    15   am
    10    15     1    1
    11     1     2   ar
    12     2     3   ar
    13     3     4   ar
    14     4     5   ar
    15     5     6   ar
    16     6     7   ar
    17     7     8    1
    18     7     9   ar
    19     9    10   ar
    20    10    11   ar
    21    11    27    1
    22    27    28    1
    23    27    29    1
    24    29    30    1
    25    30    31    1
    26    31    32    1
    27    32    33    1
    28    33    34    1
    29    33    35    1
    30    21    22   ar
    31    22    23   ar
    32    23    24    1
    33    23    18   ar
    34    11     1   ar
    35    35    29    1
    36    10     4   ar
    37    12    16    1
    38    15    17    1
@<TRIPOS>MOLECULE
*****
 35 38 0 0 0
SMALL
GASTEIGER

@<TRIPOS>ATOM
      1 C         140.4949  139.5057  166.5719 C.ar    1  UNL1        0.0844
      2 C         139.3058  139.8649  167.4127 C.ar    1  UNL1        0.1147
      3 N         139.4782  140.7335  168.6234 N.ar    1  UNL1       -0.2425
      4 C         140.8397  141.2429  168.9934 C.ar    1  UNL1        0.0827
      5 C         141.0121  142.1114  170.2041 C.ar    1  UNL1        0.0214
      6 C         142.3735  142.6207  170.5740 C.ar    1  UNL1        0.0312
      7 C         143.5627  142.2615  169.7332 C.ar    1  UNL1        0.1403
      8 F         144.9242  142.7709  170.1032 F       1  UNL1       -0.2042
      9 C         143.3903  141.3930  168.5225 C.ar    1  UNL1        0.0324
     10 C         142.0288  140.8837  168.1526 C.ar    1  UNL1        0.0345
     11 C         141.8564  140.0151  166.9418 C.ar    1  UNL1        0.0646
     12 N         139.7048  138.3723  162.8516 N.am    1  UNL1       -0.2667
     13 C         139.8772  139.2409  164.0622 C.2     1  UNL1        0.3083
     14 O         139.6043  140.7132  163.9740 O.2     1  UNL1       -0.2521
     15 N         140.3225  138.6371  165.3611 N.am    1  UNL1       -0.2658
     16 H         139.8839  137.4059  162.9095 H       1  UNL1        0.1565
     17 H         140.5016  137.6708  165.4190 H       1  UNL1        0.1565
     18 C         138.3688  140.1834  158.9548 C.ar    1  UNL1        0.2359
     19 N         137.3515  139.7527  159.9695 N.ar    1  UNL1       -0.2081
     20 C         137.7969  139.1490  161.2684 C.ar    1  UNL1        0.1167
     21 C         139.2595  138.9760  161.5526 C.ar    1  UNL1        0.0720
     22 C         140.2768  139.4067  160.5379 C.ar    1  UNL1        0.0324
     23 C         139.8314  140.0103  159.2390 C.ar    1  UNL1        0.1120
     24 CL        140.8487  140.4410  158.2243 Cl      1  UNL1       -0.0773
     25 C         137.7506  142.2726  157.5394 C.3     1  UNL1        0.2543
     26 O         137.9235  140.7871  157.6558 O.3     1  UNL1       -0.4556
     27 N         143.0455  139.6559  166.1010 N.pl3   1  UNL1       -0.3050
     28 C         143.7087  138.3213  166.2711 C.3     1  UNL1        0.1122
     29 C         143.5714  140.6313  165.0900 C.3     1  UNL1        0.0889
     30 C         144.8437  140.3348  164.3530 C.3     1  UNL1        0.0226
     31 C         145.3697  141.3102  163.3421 C.3     1  UNL1        0.0191
     32 C         144.6232  142.5821  163.0682 C.3     1  UNL1        0.0722
     33 N         143.3509  142.8786  163.8052 N.3     1  UNL1       -0.2701
     34 C         142.6045  144.1506  163.5313 C.3     1  UNL1        0.0897
     35 C         142.8250  141.9032  164.8162 C.3     1  UNL1        0.0920
@<TRIPOS>BOND
     1    25    26    1
     2    26    18    1
     3    18    19   ar
     4    19    20   ar
     5    20    21   ar
     6    21    12    1
     7    12    13   am
     8    13    14    2
     9    13    15   am
    10    15     1    1
    11     1     2   ar
    12     2     3   ar
    13     3     4   ar
    14     4     5   ar
    15     5     6   ar
    16     6     7   ar
    17     7     8    1
    18     7     9   ar
    19     9    10   ar
    20    10    11   ar
    21    11    27    1
    22    27    28    1
    23    27    29    1
    24    29    30    1
    25    30    31    1
    26    31    32    1
    27    32    33    1
    28    33    34    1
    29    33    35    1
    30    21    22   ar
    31    22    23   ar
    32    23    24    1
    33    23    18   ar
    34    11     1   ar
    35    35    29    1
    36    10     4   ar
    37    12    16    1
    38    15    17    1
@<TRIPOS>MOLECULE
*****
 35 38 0 0 0
SMALL
GASTEIGER

@<TRIPOS>ATOM
      1 C         143.1221  140.1133  165.0508 C.ar    1  UNL1        0.0844
      2 C         143.1431  138.7725  165.7231 C.ar    1  UNL1        0.1147
      3 N         142.9753  138.6767  167.2105 N.ar    1  UNL1       -0.2425
      4 C         142.7865  139.9216  168.0258 C.ar    1  UNL1        0.0827
      5 C         142.6186  139.8258  169.5133 C.ar    1  UNL1        0.0214
      6 C         142.4299  141.0706  170.3285 C.ar    1  UNL1        0.0312
      7 C         142.4089  142.4114  169.6562 C.ar    1  UNL1        0.1403
      8 F         142.2201  143.6563  170.4714 F       1  UNL1       -0.2042
      9 C         142.5767  142.5072  168.1687 C.ar    1  UNL1        0.0324
     10 C         142.7655  141.2624  167.3535 C.ar    1  UNL1        0.0345
     11 C         142.9333  141.3582  165.8660 C.ar    1  UNL1        0.0646
     12 N         142.2526  140.2956  161.1829 N.am    1  UNL1       -0.2667
     13 C         142.0847  140.1998  162.6704 C.2     1  UNL1        0.3083
     14 O         140.7116  140.0946  163.2649 O.2     1  UNL1       -0.2521
     15 N         143.2900  140.2091  163.5632 N.am    1  UNL1       -0.2658
     16 H         143.1538  140.3646  160.7927 H       1  UNL1        0.1565
     17 H         144.1912  140.2781  163.1730 H       1  UNL1        0.1565
     18 C         138.6369  140.2675  158.5041 C.ar    1  UNL1        0.2359
     19 N         139.3204  138.9792  158.8549 N.ar    1  UNL1       -0.2081
     20 C         140.5256  138.9886  159.7479 C.ar    1  UNL1        0.1167
     21 C         141.0473  140.2862  160.2899 C.ar    1  UNL1        0.0720
     22 C         140.3639  141.5745  159.9391 C.ar    1  UNL1        0.0324
     23 C         139.1587  141.5651  159.0461 C.ar    1  UNL1        0.1120
     24 CL        138.4751  142.8535  158.6952 Cl      1  UNL1       -0.0773
     25 C         137.5939  140.4356  156.1305 C.3     1  UNL1        0.2543
     26 O         137.4317  140.2581  157.6111 O.3     1  UNL1       -0.4556
     27 N         142.9124  142.6989  165.1937 N.pl3   1  UNL1       -0.3050
     28 C         144.1954  143.4384  164.9550 C.3     1  UNL1        0.1122
     29 C         141.6083  143.3002  164.7601 C.3     1  UNL1        0.0889
     30 C         140.3359  142.9109  165.4525 C.3     1  UNL1        0.0226
     31 C         139.0319  143.5122  165.0190 C.3     1  UNL1        0.0191
     32 C         139.0003  144.5027  163.8931 C.3     1  UNL1        0.0722
     33 N         140.2727  144.8920  163.2006 N.3     1  UNL1       -0.2701
     34 C         140.2410  145.8825  162.0746 C.3     1  UNL1        0.0897
     35 C         141.5767  144.2907  163.6342 C.3     1  UNL1        0.0920
@<TRIPOS>BOND
     1    25    26    1
     2    26    18    1
     3    18    19   ar
     4    19    20   ar
     5    20    21   ar
     6    21    12    1
     7    12    13   am
     8    13    14    2
     9    13    15   am
    10    15     1    1
    11     1     2   ar
    12     2     3   ar
    13     3     4   ar
    14     4     5   ar
    15     5     6   ar
    16     6     7   ar
    17     7     8    1
    18     7     9   ar
    19     9    10   ar
    20    10    11   ar
    21    11    27    1
    22    27    28    1
    23    27    29    1
    24    29    30    1
    25    30    31    1
    26    31    32    1
    27    32    33    1
    28    33    34    1
    29    33    35    1
    30    21    22   ar
    31    22    23   ar
    32    23    24    1
    33    23    18   ar
    34    11     1   ar
    35    35    29    1
    36    10     4   ar
    37    12    16    1
    38    15    17    1
@<TRIPOS>MOLECULE
*****
 35 38 0 0 0
SMALL
GASTEIGER

@<TRIPOS>ATOM
      1 C         138.9825  140.5676  165.4626 C.ar    1  UNL1        0.0844
      2 C         138.5200  139.3738  166.2443 C.ar    1  UNL1        0.1147
      3 N         138.8285  139.2706  167.7085 N.ar    1  UNL1       -0.2425
      4 C         139.5996  140.3613  168.3912 C.ar    1  UNL1        0.0827
      5 C         139.9081  140.2581  169.8555 C.ar    1  UNL1        0.0214
      6 C         140.6792  141.3487  170.5381 C.ar    1  UNL1        0.0312
      7 C         141.1416  142.5425  169.7565 C.ar    1  UNL1        0.1403
      8 F         141.9127  143.6332  170.4392 F       1  UNL1       -0.2042
      9 C         140.8331  142.6457  168.2922 C.ar    1  UNL1        0.0324
     10 C         140.0621  141.5551  167.6096 C.ar    1  UNL1        0.0345
     11 C         139.7535  141.6582  166.1452 C.ar    1  UNL1        0.0646
     12 N         139.3418  140.2500  161.5231 N.am    1  UNL1       -0.2667
     13 C         139.6504  140.1468  162.9873 C.2     1  UNL1        0.3083
     14 O         140.9354  139.5199  163.4406 O.2     1  UNL1       -0.2521
     15 N         138.6739  140.6707  163.9983 N.am    1  UNL1       -0.2658
     16 H         138.4983  140.6615  161.2256 H       1  UNL1        0.1565
     17 H         137.8305  141.0822  163.7007 H       1  UNL1        0.1565
     18 C         142.2711  138.6784  158.4901 C.ar    1  UNL1        0.2359
     19 N         140.9414  138.0070  158.6665 N.ar    1  UNL1       -0.2081
     20 C         139.9650  138.5309  159.6775 C.ar    1  UNL1        0.1167
     21 C         140.3183  139.7261  160.5121 C.ar    1  UNL1        0.0720
     22 C         141.6479  140.3975  160.3357 C.ar    1  UNL1        0.0324
     23 C         142.6243  139.8736  159.3247 C.ar    1  UNL1        0.1120
     24 CL        143.9541  140.5450  159.1482 Cl      1  UNL1       -0.0773
     25 C         142.9750  136.8586  156.7746 C.3     1  UNL1        0.2543
     26 O         143.2475  138.1545  157.4790 O.3     1  UNL1       -0.4556
     27 N         140.2160  142.8520  165.3636 N.pl3   1  UNL1       -0.3050
     28 C         139.3426  144.0673  165.2637 C.3     1  UNL1        0.1122
     29 C         141.5520  142.8304  164.6818 C.3     1  UNL1        0.0889
     30 C         142.7729  142.3971  165.4379 C.3     1  UNL1        0.0226
     31 C         144.1088  142.3755  164.7562 C.3     1  UNL1        0.0191
     32 C         144.2239  142.7872  163.3185 C.3     1  UNL1        0.0722
     33 N         143.0030  143.2205  162.5624 N.3     1  UNL1       -0.2701
     34 C         143.1181  143.6322  161.1245 C.3     1  UNL1        0.0897
     35 C         141.6670  143.2421  163.2441 C.3     1  UNL1        0.0920
@<TRIPOS>BOND
     1    25    26    1
     2    26    18    1
     3    18    19   ar
     4    19    20   ar
     5    20    21   ar
     6    21    12    1
     7    12    13   am
     8    13    14    2
     9    13    15   am
    10    15     1    1
    11     1     2   ar
    12     2     3   ar
    13     3     4   ar
    14     4     5   ar
    15     5     6   ar
    16     6     7   ar
    17     7     8    1
    18     7     9   ar
    19     9    10   ar
    20    10    11   ar
    21    11    27    1
    22    27    28    1
    23    27    29    1
    24    29    30    1
    25    30    31    1
    26    31    32    1
    27    32    33    1
    28    33    34    1
    29    33    35    1
    30    21    22   ar
    31    22    23   ar
    32    23    24    1
    33    23    18   ar
    34    11     1   ar
    35    35    29    1
    36    10     4   ar
    37    12    16    1
    38    15    17    1
@<TRIPOS>MOLECULE
*****
 35 38 0 0 0
SMALL
GASTEIGER

@<TRIPOS>ATOM
      1 C         141.2961  138.0043  163.3879 C.ar    1  UNL1        0.0844
      2 C         139.8842  137.5401  163.1849 C.ar    1  UNL1        0.1147
      3 N         138.8459  137.8172  164.2312 N.ar    1  UNL1       -0.2425
      4 C         139.2193  138.5586  165.4807 C.ar    1  UNL1        0.0827
      5 C         138.1810  138.8357  166.5271 C.ar    1  UNL1        0.0214
      6 C         138.5544  139.5770  167.7764 C.ar    1  UNL1        0.0312
      7 C         139.9663  140.0412  167.9794 C.ar    1  UNL1        0.1403
      8 F         140.3398  140.7826  169.2288 F       1  UNL1       -0.2042
      9 C         141.0047  139.7641  166.9330 C.ar    1  UNL1        0.0324
     10 C         140.6312  139.0228  165.6837 C.ar    1  UNL1        0.0345
     11 C         141.6696  138.7456  164.6372 C.ar    1  UNL1        0.0646
     12 N         143.3920  138.2508  160.0269 N.am    1  UNL1       -0.2667
     13 C         142.3537  138.5279  161.0732 C.2     1  UNL1        0.3083
     14 O         141.3345  139.6059  160.8514 O.2     1  UNL1       -0.2521
     15 N         142.3345  137.7271  162.3414 N.am    1  UNL1       -0.2658
     16 H         144.0609  137.5432  160.1724 H       1  UNL1        0.1565
     17 H         143.0034  137.0196  162.4870 H       1  UNL1        0.1565
     18 C         143.4496  140.6531  156.2222 C.ar    1  UNL1        0.2359
     19 N         142.8262  139.2889  156.2384 N.ar    1  UNL1       -0.2081
     20 C         142.8070  138.4881  157.5066 C.ar    1  UNL1        0.1167
     21 C         143.4112  139.0516  158.7586 C.ar    1  UNL1        0.0720
     22 C         144.0346  140.4158  158.7424 C.ar    1  UNL1        0.0324
     23 C         144.0538  141.2165  157.4742 C.ar    1  UNL1        0.1120
     24 CL        144.6772  142.5808  157.4579 Cl      1  UNL1       -0.0773
     25 C         142.2937  142.3128  154.5914 C.3     1  UNL1        0.2543
     26 O         143.4688  141.4539  154.9539 O.3     1  UNL1       -0.4556
     27 N         143.0814  139.2098  164.8402 N.pl3   1  UNL1       -0.3050
     28 C         143.9911  138.4607  165.7683 C.3     1  UNL1        0.1122
     29 C         143.5836  140.4231  164.1150 C.3     1  UNL1        0.0889
     30 C         145.0515  140.5861  163.8529 C.3     1  UNL1        0.0226
     31 C         145.5537  141.7994  163.1278 C.3     1  UNL1        0.0191
     32 C         144.5880  142.8496  162.6648 C.3     1  UNL1        0.0722
     33 N         143.1201  142.6866  162.9269 N.3     1  UNL1       -0.2701
     34 C         142.1544  143.7368  162.4639 C.3     1  UNL1        0.0897
     35 C         142.6179  141.4733  163.6520 C.3     1  UNL1        0.0920
@<TRIPOS>BOND
     1    25    26    1
     2    26    18    1
     3    18    19   ar
     4    19    20   ar
     5    20    21   ar
     6    21    12    1
     7    12    13   am
     8    13    14    2
     9    13    15   am
    10    15     1    1
    11     1     2   ar
    12     2     3   ar
    13     3     4   ar
    14     4     5   ar
    15     5     6   ar
    16     6     7   ar
    17     7     8    1
    18     7     9   ar
    19     9    10   ar
    20    10    11   ar
    21    11    27    1
    22    27    28    1
    23    27    29    1
    24    29    30    1
    25    30    31    1
    26    31    32    1
    27    32    33    1
    28    33    34    1
    29    33    35    1
    30    21    22   ar
    31    22    23   ar
    32    23    24    1
    33    23    18   ar
    34    11     1   ar
    35    35    29    1
    36    10     4   ar
    37    12    16    1
    38    15    17    1
