@<TRIPOS>MOLECULE
*****
 44 49 0 0 0
SMALL
GASTEIGER

@<TRIPOS>ATOM
      1 C         142.5672  141.0927  156.0141 C.ar    1  UNL1        0.0115
      2 C         143.2252  142.4189  155.7722 C.ar    1  UNL1        0.0579
      3 CL        142.4547  143.6883  155.9846 Cl      1  UNL1       -0.0822
      4 C         144.6537  142.4756  155.3180 C.ar    1  UNL1        0.0174
      5 C         145.4241  141.2063  155.1056 C.ar    1  UNL1        0.0716
      6 C         144.7661  139.8801  155.3475 C.ar    1  UNL1        0.0854
      7 N         145.2692  138.4725  155.2233 N.2     1  UNL1       -0.2455
      8 C         144.1518  137.5458  155.6007 C.2     1  UNL1        0.0774
      9 C         144.0671  136.0496  155.6651 C.2     1  UNL1        0.0164
     10 C         142.7885  135.3883  156.0870 C.2     1  UNL1       -0.0007
     11 C         141.5947  136.2232  156.4444 C.2     1  UNL1       -0.0233
     12 C         141.6795  137.7194  156.3801 C.3     1  UNL1        0.0536
     13 C         142.9580  138.3807  155.9582 C.2     1  UNL1        0.0013
     14 C         143.3377  139.8234  155.8017 C.ar    1  UNL1        0.0164
     15 C         141.9145  141.2690  158.9368 C.3     1  UNL1        0.0326
     16 C         140.8124  141.1242  157.9296 C.ar    1  UNL1       -0.0055
     17 C         141.1387  141.0360  156.4683 C.ar    1  UNL1       -0.0017
     18 C         140.0367  140.8912  155.4610 C.ar    1  UNL1       -0.0002
     19 C         138.6082  140.8344  155.9153 C.ar    1  UNL1        0.0015
     20 C         138.2819  140.9226  157.3767 C.ar    1  UNL1        0.0174
     21 C         139.3840  141.0675  158.3839 C.ar    1  UNL1        0.0671
     22 N         139.0576  141.1556  159.8453 N.ar    1  UNL1       -0.2272
     23 C         138.9647  139.9060  160.6698 C.ar    1  UNL1        0.2697
     24 O         139.1981  138.5682  160.0328 O.2     1  UNL1       -0.2664
     25 C         138.6384  139.9941  162.1312 C.ar    1  UNL1        0.0797
     26 C         138.4049  141.3319  162.7682 C.ar    1  UNL1        0.0835
     27 C         138.0786  141.4201  164.2295 C.ar    1  UNL1        0.0741
     28 CL        137.9857  140.1704  165.0540 Cl      1  UNL1       -0.0807
     29 C         137.8452  142.7580  164.8665 C.ar    1  UNL1        0.0144
     30 C         137.9381  144.0076  164.0421 C.ar    1  UNL1        0.0200
     31 C         138.2645  143.9195  162.5807 C.ar    1  UNL1        0.0844
     32 N         138.4979  142.5816  161.9438 N.ar    1  UNL1       -0.2576
     33 C         138.8242  142.4934  160.4823 C.ar    1  UNL1        0.3416
     34 O         138.9172  143.7432  159.6579 O.2     1  UNL1       -0.2455
     35 C         146.8526  141.2630  154.6514 C.2     1  UNL1        0.2442
     36 N         147.9531  141.4302  155.6567 N.am    1  UNL1       -0.3253
     37 O         147.1804  141.1527  153.1918 O.2     1  UNL1       -0.2703
     38 H         147.7380  141.5026  156.6147 H       1  UNL1        0.1453
     39 H         148.8907  141.4674  155.3586 H       1  UNL1        0.1453
     40 C         142.7038  133.8920  156.1514 C.3     1  UNL1        0.1069
     41 C         143.7835  133.8756  157.1924 C.3     1  UNL1        0.0339
     42 C         141.6240  133.9085  155.1103 C.3     1  UNL1        0.0339
     43 O         142.6189  132.3959  156.2157 O.3     1  UNL1       -0.3827
     44 H         143.2590  132.0633  156.8643 H       1  UNL1        0.2107
@<TRIPOS>BOND
     1    15    16    1
     2    16    17   ar
     3    17     1    1
     4     1     2   ar
     5     2     3    1
     6     2     4   ar
     7     4     5   ar
     8     5    35    1
     9    35    36   am
    10    35    37    2
    11     5     6   ar
    12     6     7    2
    13     7     8    1
    14     8     9    2
    15     9    10    1
    16    10    40    1
    17    40    41    1
    18    40    42    1
    19    40    43    1
    20    10    11    2
    21    11    12    1
    22    12    13    1
    23    13    14    2
    24    17    18   ar
    25    18    19   ar
    26    19    20   ar
    27    20    21   ar
    28    21    22    1
    29    22    23   ar
    30    23    24    2
    31    23    25   ar
    32    25    26   ar
    33    26    27   ar
    34    27    28    1
    35    27    29   ar
    36    29    30   ar
    37    30    31   ar
    38    31    32   ar
    39    32    33   ar
    40    33    34    2
    41    21    16   ar
    42    33    22   ar
    43    14     1   ar
    44    32    26   ar
    45    14     6   ar
    46    13     8    1
    47    36    38    1
    48    36    39    1
    49    43    44    1
@<TRIPOS>MOLECULE
*****
 44 49 0 0 0
SMALL
GASTEIGER

@<TRIPOS>ATOM
      1 C         142.7776  141.1250  156.6011 C.ar    1  UNL1        0.0115
      2 C         143.4509  142.4529  156.4186 C.ar    1  UNL1        0.0579
      3 CL        142.7547  143.7116  156.8445 Cl      1  UNL1       -0.0822
      4 C         144.8202  142.5222  155.8103 C.ar    1  UNL1        0.0174
      5 C         145.5162  141.2636  155.3845 C.ar    1  UNL1        0.0716
      6 C         144.8430  139.9357  155.5670 C.ar    1  UNL1        0.0854
      7 N         145.2786  138.5368  155.2454 N.2     1  UNL1       -0.2455
      8 C         144.1785  137.6030  155.6550 C.2     1  UNL1        0.0774
      9 C         144.0485  136.1106  155.5789 C.2     1  UNL1        0.0164
     10 C         142.8029  135.4399  156.0775 C.2     1  UNL1       -0.0007
     11 C         141.6873  136.2617  156.6523 C.2     1  UNL1       -0.0233
     12 C         141.8174  137.7540  156.7284 C.3     1  UNL1        0.0536
     13 C         143.0629  138.4247  156.2297 C.2     1  UNL1        0.0013
     14 C         143.4736  139.8664  156.1753 C.ar    1  UNL1        0.0164
     15 C         142.4687  140.7909  159.5664 C.3     1  UNL1        0.0326
     16 C         141.2538  140.8887  158.6921 C.ar    1  UNL1       -0.0055
     17 C         141.4082  141.0557  157.2095 C.ar    1  UNL1       -0.0017
     18 C         140.1933  141.1536  156.3352 C.ar    1  UNL1       -0.0002
     19 C         138.8239  141.0843  156.9436 C.ar    1  UNL1        0.0015
     20 C         138.6695  140.9172  158.4262 C.ar    1  UNL1        0.0174
     21 C         139.8845  140.8194  159.3005 C.ar    1  UNL1        0.0671
     22 N         139.7301  140.6523  160.7832 N.ar    1  UNL1       -0.2272
     23 C         139.8547  141.8415  161.6889 C.ar    1  UNL1        0.2697
     24 O         140.1337  143.1977  161.1120 O.2     1  UNL1       -0.2664
     25 C         139.7003  141.6744  163.1716 C.ar    1  UNL1        0.0797
     26 C         139.4213  140.3182  163.7485 C.ar    1  UNL1        0.0835
     27 C         139.2669  140.1511  165.2311 C.ar    1  UNL1        0.0741
     28 CL        139.3915  141.3402  166.1368 Cl      1  UNL1       -0.0807
     29 C         138.9879  138.7948  165.8080 C.ar    1  UNL1        0.0144
     30 C         138.8633  137.6057  164.9022 C.ar    1  UNL1        0.0200
     31 C         139.0177  137.7728  163.4195 C.ar    1  UNL1        0.0844
     32 N         139.2967  139.1290  162.8428 N.ar    1  UNL1       -0.2576
     33 C         139.4511  139.2961  161.3601 C.ar    1  UNL1        0.3416
     34 O         139.3264  138.1069  160.4543 O.2     1  UNL1       -0.2455
     35 C         146.8856  141.3329  154.7761 C.2     1  UNL1        0.2442
     36 N         148.0936  141.4423  155.6585 N.am    1  UNL1       -0.3253
     37 O         147.0469  141.2929  153.2853 O.2     1  UNL1       -0.2703
     38 H         147.9877  141.4686  156.6369 H       1  UNL1        0.1453
     39 H         148.9923  141.4878  155.2592 H       1  UNL1        0.1453
     40 C         142.6728  133.9475  156.0014 C.3     1  UNL1        0.1069
     41 C         143.7638  133.8004  157.0203 C.3     1  UNL1        0.0339
     42 C         141.5818  134.0946  154.9826 C.3     1  UNL1        0.0339
     43 O         142.5427  132.4551  155.9253 O.3     1  UNL1       -0.3827
     44 H         143.1798  132.0437  156.5301 H       1  UNL1        0.2107
@<TRIPOS>BOND
     1    15    16    1
     2    16    17   ar
     3    17     1    1
     4     1     2   ar
     5     2     3    1
     6     2     4   ar
     7     4     5   ar
     8     5    35    1
     9    35    36   am
    10    35    37    2
    11     5     6   ar
    12     6     7    2
    13     7     8    1
    14     8     9    2
    15     9    10    1
    16    10    40    1
    17    40    41    1
    18    40    42    1
    19    40    43    1
    20    10    11    2
    21    11    12    1
    22    12    13    1
    23    13    14    2
    24    17    18   ar
    25    18    19   ar
    26    19    20   ar
    27    20    21   ar
    28    21    22    1
    29    22    23   ar
    30    23    24    2
    31    23    25   ar
    32    25    26   ar
    33    26    27   ar
    34    27    28    1
    35    27    29   ar
    36    29    30   ar
    37    30    31   ar
    38    31    32   ar
    39    32    33   ar
    40    33    34    2
    41    21    16   ar
    42    33    22   ar
    43    14     1   ar
    44    32    26   ar
    45    14     6   ar
    46    13     8    1
    47    36    38    1
    48    36    39    1
    49    43    44    1
@<TRIPOS>MOLECULE
*****
 44 49 0 0 0
SMALL
GASTEIGER

@<TRIPOS>ATOM
      1 C         140.1958  141.4873  158.1103 C.ar    1  UNL1        0.0115
      2 C         139.2102  142.6179  158.1326 C.ar    1  UNL1        0.0579
      3 CL        139.5141  143.8624  158.9130 Cl      1  UNL1       -0.0822
      4 C         137.9209  142.5040  157.3746 C.ar    1  UNL1        0.0174
      5 C         137.6170  141.2596  156.5943 C.ar    1  UNL1        0.0716
      6 C         138.6026  140.1289  156.5719 C.ar    1  UNL1        0.0854
      7 N         138.5785  138.7896  155.8970 N.2     1  UNL1       -0.2455
      8 C         139.8529  138.0757  156.2378 C.2     1  UNL1        0.0774
      9 C         140.3791  136.7239  155.8562 C.2     1  UNL1        0.0164
     10 C         141.7170  136.2702  156.3601 C.2     1  UNL1       -0.0007
     11 C         142.5288  137.1684  157.2458 C.2     1  UNL1       -0.0233
     12 C         142.0026  138.5202  157.6275 C.3     1  UNL1        0.0536
     13 C         140.6647  138.9738  157.1235 C.2     1  UNL1        0.0013
     14 C         139.8919  140.2428  157.3300 C.ar    1  UNL1        0.0164
     15 C         140.3835  140.4426  160.9162 C.3     1  UNL1        0.0326
     16 C         141.5790  141.0788  160.2713 C.ar    1  UNL1       -0.0055
     17 C         141.4852  141.6012  158.8684 C.ar    1  UNL1       -0.0017
     18 C         142.6806  142.2374  158.2234 C.ar    1  UNL1       -0.0002
     19 C         143.9700  142.3513  158.9814 C.ar    1  UNL1        0.0015
     20 C         144.0638  141.8289  160.3844 C.ar    1  UNL1        0.0174
     21 C         142.8683  141.1927  161.0293 C.ar    1  UNL1        0.0671
     22 N         142.9621  140.6704  162.4323 N.ar    1  UNL1       -0.2272
     23 C         143.5346  139.3078  162.6886 C.ar    1  UNL1        0.2697
     24 O         144.0132  138.4676  161.5419 O.2     1  UNL1       -0.2664
     25 C         143.6284  138.7855  164.0916 C.ar    1  UNL1        0.0797
     26 C         143.1497  139.6256  165.2383 C.ar    1  UNL1        0.0835
     27 C         143.2435  139.1033  166.6412 C.ar    1  UNL1        0.0741
     28 CL        143.8160  137.7408  166.8975 Cl      1  UNL1       -0.0807
     29 C         142.7648  139.9436  167.7880 C.ar    1  UNL1        0.0144
     30 C         142.1923  141.3061  167.5317 C.ar    1  UNL1        0.0200
     31 C         142.0985  141.8285  166.1287 C.ar    1  UNL1        0.0844
     32 N         142.5772  140.9882  164.9820 N.ar    1  UNL1       -0.2576
     33 C         142.4834  141.5105  163.5790 C.ar    1  UNL1        0.3416
     34 O         141.9109  142.8732  163.3228 O.2     1  UNL1       -0.2455
     35 C         136.3277  141.1457  155.8363 C.2     1  UNL1        0.2442
     36 N         135.6050  139.8327  155.7787 N.am    1  UNL1       -0.3253
     37 O         135.7610  142.3451  155.1358 O.2     1  UNL1       -0.2703
     38 H         135.9768  139.0455  156.2385 H       1  UNL1        0.1453
     39 H         134.7587  139.7579  155.2812 H       1  UNL1        0.1453
     40 C         142.2432  134.9183  155.9785 C.3     1  UNL1        0.1069
     41 C         141.1714  134.7952  154.9364 C.3     1  UNL1        0.0339
     42 C         143.3151  135.0414  157.0206 C.3     1  UNL1        0.0339
     43 O         142.7695  133.5665  155.5969 O.3     1  UNL1       -0.3827
     44 H         142.2294  133.2001  154.8793 H       1  UNL1        0.2107
@<TRIPOS>BOND
     1    15    16    1
     2    16    17   ar
     3    17     1    1
     4     1     2   ar
     5     2     3    1
     6     2     4   ar
     7     4     5   ar
     8     5    35    1
     9    35    36   am
    10    35    37    2
    11     5     6   ar
    12     6     7    2
    13     7     8    1
    14     8     9    2
    15     9    10    1
    16    10    40    1
    17    40    41    1
    18    40    42    1
    19    40    43    1
    20    10    11    2
    21    11    12    1
    22    12    13    1
    23    13    14    2
    24    17    18   ar
    25    18    19   ar
    26    19    20   ar
    27    20    21   ar
    28    21    22    1
    29    22    23   ar
    30    23    24    2
    31    23    25   ar
    32    25    26   ar
    33    26    27   ar
    34    27    28    1
    35    27    29   ar
    36    29    30   ar
    37    30    31   ar
    38    31    32   ar
    39    32    33   ar
    40    33    34    2
    41    21    16   ar
    42    33    22   ar
    43    14     1   ar
    44    32    26   ar
    45    14     6   ar
    46    13     8    1
    47    36    38    1
    48    36    39    1
    49    43    44    1
@<TRIPOS>MOLECULE
*****
 44 49 0 0 0
SMALL
GASTEIGER

@<TRIPOS>ATOM
      1 C         141.0771  139.0589  164.6173 C.ar    1  UNL1        0.0115
      2 C         140.1769  138.0486  163.9701 C.ar    1  UNL1        0.0579
      3 CL        140.4540  137.5845  162.5707 Cl      1  UNL1       -0.0822
      4 C         138.9996  137.5023  164.7221 C.ar    1  UNL1        0.0174
      5 C         138.7225  137.9663  166.1213 C.ar    1  UNL1        0.0716
      6 C         139.6228  138.9767  166.7685 C.ar    1  UNL1        0.0854
      7 N         139.6012  139.6174  168.1246 N.2     1  UNL1       -0.2455
      8 C         140.7650  140.5597  168.2107 C.2     1  UNL1        0.0774
      9 C         141.2459  141.4634  169.3071 C.2     1  UNL1        0.0164
     10 C         142.4677  142.3087  169.1006 C.2     1  UNL1       -0.0007
     11 C         143.2086  142.2503  167.7977 C.2     1  UNL1       -0.0233
     12 C         142.7278  141.3466  166.7012 C.3     1  UNL1        0.0536
     13 C         141.5060  140.5014  166.9077 C.2     1  UNL1        0.0013
     14 C         140.8000  139.5230  166.0165 C.ar    1  UNL1        0.0164
     15 C         140.6454  140.8793  162.2722 C.3     1  UNL1        0.0326
     16 C         142.0385  140.5154  162.6926 C.ar    1  UNL1       -0.0055
     17 C         142.2544  139.6052  163.8651 C.ar    1  UNL1       -0.0017
     18 C         143.6475  139.2413  164.2857 C.ar    1  UNL1       -0.0002
     19 C         144.8247  139.7876  163.5335 C.ar    1  UNL1        0.0015
     20 C         144.6088  140.6978  162.3610 C.ar    1  UNL1        0.0174
     21 C         143.2157  141.0617  161.9405 C.ar    1  UNL1        0.0671
     22 N         142.9999  141.9719  160.7679 N.ar    1  UNL1       -0.2272
     23 C         142.6263  143.4074  160.9915 C.ar    1  UNL1        0.2697
     24 O         142.4687  143.9326  162.3877 O.2     1  UNL1       -0.2664
     25 C         142.4105  144.3176  159.8190 C.ar    1  UNL1        0.0797
     26 C         142.5681  143.7924  158.4228 C.ar    1  UNL1        0.0835
     27 C         142.3522  144.7026  157.2503 C.ar    1  UNL1        0.0741
     28 CL        141.9787  146.1380  157.4739 Cl      1  UNL1       -0.0807
     29 C         142.5099  144.1773  155.8541 C.ar    1  UNL1        0.0144
     30 C         142.8834  142.7419  155.6305 C.ar    1  UNL1        0.0200
     31 C         143.0993  141.8317  156.8031 C.ar    1  UNL1        0.0844
     32 N         142.9416  142.3570  158.1992 N.ar    1  UNL1       -0.2576
     33 C         143.1575  141.4468  159.3718 C.ar    1  UNL1        0.3416
     34 O         143.5311  140.0113  159.1481 O.2     1  UNL1       -0.2455
     35 C         137.5453  137.4200  166.8734 C.2     1  UNL1        0.2442
     36 N         136.9109  138.2301  167.9647 N.am    1  UNL1       -0.3253
     37 O         137.0023  136.0634  166.5340 O.2     1  UNL1       -0.2703
     38 H         137.2672  139.1204  168.1875 H       1  UNL1        0.1453
     39 H         136.1382  137.8715  168.4583 H       1  UNL1        0.1453
     40 C         142.9486  143.2124  170.1970 C.3     1  UNL1        0.1069
     41 C         141.5608  143.7593  170.3550 C.3     1  UNL1        0.0339
     42 C         144.3363  142.6655  170.0390 C.3     1  UNL1        0.0339
     43 O         143.4295  144.1160  171.2934 O.3     1  UNL1       -0.3827
     44 H         142.6870  144.6443  171.6260 H       1  UNL1        0.2107
@<TRIPOS>BOND
     1    15    16    1
     2    16    17   ar
     3    17     1    1
     4     1     2   ar
     5     2     3    1
     6     2     4   ar
     7     4     5   ar
     8     5    35    1
     9    35    36   am
    10    35    37    2
    11     5     6   ar
    12     6     7    2
    13     7     8    1
    14     8     9    2
    15     9    10    1
    16    10    40    1
    17    40    41    1
    18    40    42    1
    19    40    43    1
    20    10    11    2
    21    11    12    1
    22    12    13    1
    23    13    14    2
    24    17    18   ar
    25    18    19   ar
    26    19    20   ar
    27    20    21   ar
    28    21    22    1
    29    22    23   ar
    30    23    24    2
    31    23    25   ar
    32    25    26   ar
    33    26    27   ar
    34    27    28    1
    35    27    29   ar
    36    29    30   ar
    37    30    31   ar
    38    31    32   ar
    39    32    33   ar
    40    33    34    2
    41    21    16   ar
    42    33    22   ar
    43    14     1   ar
    44    32    26   ar
    45    14     6   ar
    46    13     8    1
    47    36    38    1
    48    36    39    1
    49    43    44    1
@<TRIPOS>MOLECULE
*****
 44 49 0 0 0
SMALL
GASTEIGER

@<TRIPOS>ATOM
      1 C         142.5941  143.2092  158.9602 C.ar    1  UNL1        0.0115
      2 C         141.9623  144.3994  158.3012 C.ar    1  UNL1        0.0579
      3 CL        142.2035  144.6664  156.8450 Cl      1  UNL1       -0.0822
      4 C         141.0892  145.3226  159.0984 C.ar    1  UNL1        0.0174
      5 C         140.8481  145.0556  160.5546 C.ar    1  UNL1        0.0716
      6 C         141.4799  143.8653  161.2136 C.ar    1  UNL1        0.0854
      7 N         141.4246  143.3504  162.6213 N.2     1  UNL1       -0.2455
      8 C         142.2635  142.1090  162.6942 C.2     1  UNL1        0.0774
      9 C         142.5790  141.1758  163.8253 C.2     1  UNL1        0.0164
     10 C         143.4683  139.9903  163.5937 C.2     1  UNL1       -0.0007
     11 C         144.0420  139.7380  162.2309 C.2     1  UNL1       -0.0233
     12 C         143.7264  140.6712  161.0997 C.3     1  UNL1        0.0536
     13 C         142.8372  141.8567  161.3314 C.2     1  UNL1        0.0013
     14 C         142.3529  142.9422  160.4164 C.ar    1  UNL1        0.0164
     15 C         141.4490  140.6906  157.8004 C.3     1  UNL1        0.0326
     16 C         142.8945  141.0268  157.5830 C.ar    1  UNL1       -0.0055
     17 C         143.4671  142.2860  158.1629 C.ar    1  UNL1       -0.0017
     18 C         144.9127  142.6222  157.9455 C.ar    1  UNL1       -0.0002
     19 C         145.7857  141.6990  157.1482 C.ar    1  UNL1        0.0015
     20 C         145.2131  140.4397  156.5683 C.ar    1  UNL1        0.0174
     21 C         143.7675  140.1036  156.7858 C.ar    1  UNL1        0.0671
     22 N         143.1949  138.8443  156.2059 N.ar    1  UNL1       -0.2272
     23 C         142.9669  137.6500  157.0844 C.ar    1  UNL1        0.2697
     24 O         143.3115  137.7152  158.5428 O.2     1  UNL1       -0.2664
     25 C         142.3942  136.3907  156.5045 C.ar    1  UNL1        0.0797
     26 C         142.0496  136.3256  155.0461 C.ar    1  UNL1        0.0835
     27 C         141.4770  135.0664  154.4663 C.ar    1  UNL1        0.0741
     28 CL        141.2490  133.8721  155.3448 Cl      1  UNL1       -0.0807
     29 C         141.1324  135.0013  153.0078 C.ar    1  UNL1        0.0144
     30 C         141.3604  136.1955  152.1293 C.ar    1  UNL1        0.0200
     31 C         141.9330  137.4548  152.7091 C.ar    1  UNL1        0.0844
     32 N         142.2776  137.5198  154.1676 N.ar    1  UNL1       -0.2576
     33 C         142.8502  138.7791  154.7475 C.ar    1  UNL1        0.3416
     34 O         143.0782  139.9734  153.8688 O.2     1  UNL1       -0.2455
     35 C         139.9751  145.9787  161.3519 C.2     1  UNL1        0.2442
     36 N         139.9505  145.8817  162.8484 N.am    1  UNL1       -0.3253
     37 O         139.1266  146.9991  160.6524 O.2     1  UNL1       -0.2703
     38 H         140.5073  145.2120  163.3075 H       1  UNL1        0.1453
     39 H         139.3775  146.4876  163.3717 H       1  UNL1        0.1453
     40 C         143.7838  139.0570  164.7248 C.3     1  UNL1        0.1069
     41 C         142.3450  138.6369  164.7797 C.3     1  UNL1        0.0339
     42 C         145.2227  139.4772  164.6700 C.3     1  UNL1        0.0339
     43 O         144.0994  138.1238  165.8560 O.3     1  UNL1       -0.3827
     44 H         143.2902  137.6665  166.1332 H       1  UNL1        0.2107
@<TRIPOS>BOND
     1    15    16    1
     2    16    17   ar
     3    17     1    1
     4     1     2   ar
     5     2     3    1
     6     2     4   ar
     7     4     5   ar
     8     5    35    1
     9    35    36   am
    10    35    37    2
    11     5     6   ar
    12     6     7    2
    13     7     8    1
    14     8     9    2
    15     9    10    1
    16    10    40    1
    17    40    41    1
    18    40    42    1
    19    40    43    1
    20    10    11    2
    21    11    12    1
    22    12    13    1
    23    13    14    2
    24    17    18   ar
    25    18    19   ar
    26    19    20   ar
    27    20    21   ar
    28    21    22    1
    29    22    23   ar
    30    23    24    2
    31    23    25   ar
    32    25    26   ar
    33    26    27   ar
    34    27    28    1
    35    27    29   ar
    36    29    30   ar
    37    30    31   ar
    38    31    32   ar
    39    32    33   ar
    40    33    34    2
    41    21    16   ar
    42    33    22   ar
    43    14     1   ar
    44    32    26   ar
    45    14     6   ar
    46    13     8    1
    47    36    38    1
    48    36    39    1
    49    43    44    1
@<TRIPOS>MOLECULE
*****
 44 49 0 0 0
SMALL
GASTEIGER

@<TRIPOS>ATOM
      1 C         139.5361  141.2889  155.7456 C.ar    1  UNL1        0.0115
      2 C         138.8607  139.9519  155.6669 C.ar    1  UNL1        0.0579
      3 CL        139.6403  138.7003  155.9426 Cl      1  UNL1       -0.0822
      4 C         137.4057  139.8663  155.3124 C.ar    1  UNL1        0.0174
      5 C         136.6262  141.1178  155.0366 C.ar    1  UNL1        0.0716
      6 C         137.3016  142.4548  155.1154 C.ar    1  UNL1        0.0854
      7 N         136.7948  143.8497  154.8977 N.2     1  UNL1       -0.2455
      8 C         137.9366  144.7974  155.1176 C.2     1  UNL1        0.0774
      9 C         138.0289  146.2926  155.0416 C.2     1  UNL1        0.0164
     10 C         139.3336  146.9785  155.3192 C.2     1  UNL1       -0.0007
     11 C         140.5461  146.1692  155.6728 C.2     1  UNL1       -0.0233
     12 C         140.4538  144.6741  155.7489 C.3     1  UNL1        0.0536
     13 C         139.1491  143.9881  155.4713 C.2     1  UNL1        0.0013
     14 C         138.7566  142.5404  155.4699 C.ar    1  UNL1        0.0164
     15 C         140.3819  141.2782  158.6239 C.3     1  UNL1        0.0326
     16 C         141.4140  141.3690  157.5392 C.ar    1  UNL1       -0.0055
     17 C         140.9912  141.3744  156.1002 C.ar    1  UNL1       -0.0017
     18 C         142.0233  141.4652  155.0155 C.ar    1  UNL1       -0.0002
     19 C         143.4783  141.5506  155.3700 C.ar    1  UNL1        0.0015
     20 C         143.9011  141.5453  156.8092 C.ar    1  UNL1        0.0174
     21 C         142.8690  141.4545  157.8938 C.ar    1  UNL1        0.0671
     22 N         143.2918  141.4492  159.3330 N.ar    1  UNL1       -0.2272
     23 C         143.7332  140.1701  159.9803 C.ar    1  UNL1        0.2697
     24 O         143.7517  138.8963  159.1884 O.2     1  UNL1       -0.2664
     25 C         144.1560  140.1647  161.4195 C.ar    1  UNL1        0.0797
     26 C         144.1375  141.4385  162.2113 C.ar    1  UNL1        0.0835
     27 C         144.5603  141.4332  163.6504 C.ar    1  UNL1        0.0741
     28 CL        145.0017  140.1541  164.2977 Cl      1  UNL1       -0.0807
     29 C         144.5418  142.7071  164.4423 C.ar    1  UNL1        0.0144
     30 C         144.1004  143.9862  163.7950 C.ar    1  UNL1        0.0200
     31 C         143.6776  143.9915  162.3558 C.ar    1  UNL1        0.0844
     32 N         143.6961  142.7176  161.5641 N.ar    1  UNL1       -0.2576
     33 C         143.2733  142.7230  160.1249 C.ar    1  UNL1        0.3416
     34 O         142.8319  144.0022  159.4776 O.2     1  UNL1       -0.2455
     35 C         135.1712  141.0323  154.6821 C.2     1  UNL1        0.2442
     36 N         134.1282  141.3352  155.7166 N.am    1  UNL1       -0.3253
     37 O         134.7592  140.6437  153.2931 O.2     1  UNL1       -0.2703
     38 H         134.3985  141.5902  156.6282 H       1  UNL1        0.1453
     39 H         133.1732  141.2791  155.4839 H       1  UNL1        0.1453
     40 C         139.4260  148.4738  155.2431 C.3     1  UNL1        0.1069
     41 C         140.1610  148.3622  153.9404 C.3     1  UNL1        0.0339
     42 C         138.6909  148.5854  156.5459 C.3     1  UNL1        0.0339
     43 O         139.5183  149.9690  155.1671 O.3     1  UNL1       -0.3827
     44 H         139.9863  150.2232  154.3565 H       1  UNL1        0.2107
@<TRIPOS>BOND
     1    15    16    1
     2    16    17   ar
     3    17     1    1
     4     1     2   ar
     5     2     3    1
     6     2     4   ar
     7     4     5   ar
     8     5    35    1
     9    35    36   am
    10    35    37    2
    11     5     6   ar
    12     6     7    2
    13     7     8    1
    14     8     9    2
    15     9    10    1
    16    10    40    1
    17    40    41    1
    18    40    42    1
    19    40    43    1
    20    10    11    2
    21    11    12    1
    22    12    13    1
    23    13    14    2
    24    17    18   ar
    25    18    19   ar
    26    19    20   ar
    27    20    21   ar
    28    21    22    1
    29    22    23   ar
    30    23    24    2
    31    23    25   ar
    32    25    26   ar
    33    26    27   ar
    34    27    28    1
    35    27    29   ar
    36    29    30   ar
    37    30    31   ar
    38    31    32   ar
    39    32    33   ar
    40    33    34    2
    41    21    16   ar
    42    33    22   ar
    43    14     1   ar
    44    32    26   ar
    45    14     6   ar
    46    13     8    1
    47    36    38    1
    48    36    39    1
    49    43    44    1
@<TRIPOS>MOLECULE
*****
 44 49 0 0 0
SMALL
GASTEIGER

@<TRIPOS>ATOM
      1 C         142.3574  142.7825  159.3607 C.ar    1  UNL1        0.0115
      2 C         142.2694  142.3095  160.7815 C.ar    1  UNL1        0.0579
      3 CL        143.1075  141.1530  161.2402 Cl      1  UNL1       -0.0822
      4 C         141.3434  142.9928  161.7436 C.ar    1  UNL1        0.0174
      5 C         140.5054  144.1492  161.2849 C.ar    1  UNL1        0.0716
      6 C         140.5934  144.6222  159.8641 C.ar    1  UNL1        0.0854
      7 N         139.8954  145.7281  159.1294 N.2     1  UNL1       -0.2455
      8 C         140.3899  145.7282  157.7132 C.2     1  UNL1        0.0774
      9 C         140.0560  146.5924  156.5336 C.2     1  UNL1        0.0164
     10 C         140.7258  146.3507  155.2134 C.2     1  UNL1       -0.0007
     11 C         141.7295  145.2448  155.0729 C.2     1  UNL1       -0.0233
     12 C         142.0634  144.3807  156.2526 C.3     1  UNL1        0.0536
     13 C         141.3936  144.6224  157.5727 C.2     1  UNL1        0.0013
     14 C         141.5193  143.9389  158.9020 C.ar    1  UNL1        0.0164
     15 C         141.3921  140.4366  157.7593 C.3     1  UNL1        0.0326
     16 C         142.8007  140.9261  157.5980 C.ar    1  UNL1       -0.0055
     17 C         143.2834  142.0990  158.3987 C.ar    1  UNL1       -0.0017
     18 C         144.6921  142.5887  158.2374 C.ar    1  UNL1       -0.0002
     19 C         145.6180  141.9052  157.2754 C.ar    1  UNL1        0.0015
     20 C         145.1353  140.7322  156.4747 C.ar    1  UNL1        0.0174
     21 C         143.7267  140.2427  156.6360 C.ar    1  UNL1        0.0671
     22 N         143.2440  139.0697  155.8353 N.ar    1  UNL1       -0.2272
     23 C         142.9382  139.2327  154.3759 C.ar    1  UNL1        0.2697
     24 O         143.1150  140.5686  153.7172 O.2     1  UNL1       -0.2664
     25 C         142.4555  138.0597  153.5752 C.ar    1  UNL1        0.0797
     26 C         142.2786  136.7237  154.2338 C.ar    1  UNL1        0.0835
     27 C         141.7959  135.5508  153.4332 C.ar    1  UNL1        0.0741
     28 CL        141.4901  135.7138  151.9738 Cl      1  UNL1       -0.0807
     29 C         141.6191  134.2148  154.0919 C.ar    1  UNL1        0.0144
     30 C         141.9249  134.0518  155.5513 C.ar    1  UNL1        0.0200
     31 C         142.4076  135.2248  156.3521 C.ar    1  UNL1        0.0844
     32 N         142.5844  136.5607  155.6932 N.ar    1  UNL1       -0.2576
     33 C         143.0671  137.7337  156.4940 C.ar    1  UNL1        0.3416
     34 O         143.3730  137.5707  157.9534 O.2     1  UNL1       -0.2455
     35 C         139.5794  144.8326  162.2469 C.2     1  UNL1        0.2442
     36 N         140.1119  145.8662  163.1945 N.am    1  UNL1       -0.3253
     37 O         138.1209  144.4823  162.2614 O.2     1  UNL1       -0.2703
     38 H         141.0691  146.0961  163.1850 H       1  UNL1        0.1453
     39 H         139.5041  146.3147  163.8259 H       1  UNL1        0.1453
     40 C         140.3919  147.2149  154.0336 C.3     1  UNL1        0.1069
     41 C         141.3645  146.4424  153.1925 C.3     1  UNL1        0.0339
     42 C         139.4194  147.9873  154.8747 C.3     1  UNL1        0.0339
     43 O         140.0580  148.0790  152.8539 O.3     1  UNL1       -0.3827
     44 H         140.5790  147.7943  152.0868 H       1  UNL1        0.2107
@<TRIPOS>BOND
     1    15    16    1
     2    16    17   ar
     3    17     1    1
     4     1     2   ar
     5     2     3    1
     6     2     4   ar
     7     4     5   ar
     8     5    35    1
     9    35    36   am
    10    35    37    2
    11     5     6   ar
    12     6     7    2
    13     7     8    1
    14     8     9    2
    15     9    10    1
    16    10    40    1
    17    40    41    1
    18    40    42    1
    19    40    43    1
    20    10    11    2
    21    11    12    1
    22    12    13    1
    23    13    14    2
    24    17    18   ar
    25    18    19   ar
    26    19    20   ar
    27    20    21   ar
    28    21    22    1
    29    22    23   ar
    30    23    24    2
    31    23    25   ar
    32    25    26   ar
    33    26    27   ar
    34    27    28    1
    35    27    29   ar
    36    29    30   ar
    37    30    31   ar
    38    31    32   ar
    39    32    33   ar
    40    33    34    2
    41    21    16   ar
    42    33    22   ar
    43    14     1   ar
    44    32    26   ar
    45    14     6   ar
    46    13     8    1
    47    36    38    1
    48    36    39    1
    49    43    44    1
@<TRIPOS>MOLECULE
*****
 44 49 0 0 0
SMALL
GASTEIGER

@<TRIPOS>ATOM
      1 C         139.5193  141.4103  155.9297 C.ar    1  UNL1        0.0115
      2 C         138.3797  142.3826  155.8519 C.ar    1  UNL1        0.0579
      3 CL        138.6117  143.8352  156.1459 Cl      1  UNL1       -0.0822
      4 C         137.0082  141.9024  155.4800 C.ar    1  UNL1        0.0174
      5 C         136.7762  140.4499  155.1859 C.ar    1  UNL1        0.0716
      6 C         137.9158  139.4777  155.2638 C.ar    1  UNL1        0.0854
      7 N         137.9904  137.9978  155.0302 N.2     1  UNL1       -0.2455
      8 C         139.4080  137.5635  155.2578 C.2     1  UNL1        0.0774
      9 C         140.0725  136.2214  155.1726 C.2     1  UNL1        0.0164
     10 C         141.5385  136.0907  155.4616 C.2     1  UNL1       -0.0007
     11 C         142.3401  137.3021  155.8358 C.2     1  UNL1       -0.0233
     12 C         141.6756  138.6442  155.9210 C.3     1  UNL1        0.0536
     13 C         140.2096  138.7748  155.6320 C.2     1  UNL1        0.0013
     14 C         139.2874  139.9579  155.6357 C.ar    1  UNL1        0.0164
     15 C         140.4706  141.1823  158.7657 C.3     1  UNL1        0.0326
     16 C         141.3665  141.7766  157.7196 C.ar    1  UNL1       -0.0055
     17 C         140.8909  141.8906  156.3017 C.ar    1  UNL1       -0.0017
     18 C         141.7867  142.4849  155.2555 C.ar    1  UNL1       -0.0002
     19 C         143.1582  142.9651  155.6275 C.ar    1  UNL1        0.0015
     20 C         143.6338  142.8511  157.0455 C.ar    1  UNL1        0.0174
     21 C         142.7380  142.2568  158.0916 C.ar    1  UNL1        0.0671
     22 N         143.2136  142.1428  159.5096 N.ar    1  UNL1       -0.2272
     23 C         143.8453  140.8695  159.9887 C.ar    1  UNL1        0.2697
     24 O         144.0014  139.7102  159.0497 O.2     1  UNL1       -0.2664
     25 C         144.3210  140.7555  161.4067 C.ar    1  UNL1        0.0797
     26 C         144.1649  141.9148  162.3457 C.ar    1  UNL1        0.0835
     27 C         144.6405  141.8007  163.7636 C.ar    1  UNL1        0.0741
     28 CL        145.2722  140.5274  164.2427 Cl      1  UNL1       -0.0807
     29 C         144.4845  142.9601  164.7026 C.ar    1  UNL1        0.0144
     30 C         143.8528  144.2335  164.2235 C.ar    1  UNL1        0.0200
     31 C         143.3771  144.3475  162.8054 C.ar    1  UNL1        0.0844
     32 N         143.5332  143.1881  161.8666 N.ar    1  UNL1       -0.2576
     33 C         143.0576  143.3021  160.4486 C.ar    1  UNL1        0.3416
     34 O         142.4258  144.5756  159.9695 O.2     1  UNL1       -0.2455
     35 C         135.4047  139.9697  154.8140 C.2     1  UNL1        0.2442
     36 N         134.5997  139.1679  155.7932 N.am    1  UNL1       -0.3253
     37 O         134.8382  140.2914  153.4628 O.2     1  UNL1       -0.2703
     38 H         134.9715  138.9568  156.6801 H       1  UNL1        0.1453
     39 H         133.6995  138.8528  155.5491 H       1  UNL1        0.1453
     40 C         142.2031  134.7486  155.3763 C.3     1  UNL1        0.1069
     41 C         141.4786  134.4713  154.0926 C.3     1  UNL1        0.0339
     42 C         142.9277  135.0260  156.6601 C.3     1  UNL1        0.0339
     43 O         142.8677  133.4066  155.2912 O.3     1  UNL1       -0.3827
     44 H         142.5692  132.9482  154.4901 H       1  UNL1        0.2107
@<TRIPOS>BOND
     1    15    16    1
     2    16    17   ar
     3    17     1    1
     4     1     2   ar
     5     2     3    1
     6     2     4   ar
     7     4     5   ar
     8     5    35    1
     9    35    36   am
    10    35    37    2
    11     5     6   ar
    12     6     7    2
    13     7     8    1
    14     8     9    2
    15     9    10    1
    16    10    40    1
    17    40    41    1
    18    40    42    1
    19    40    43    1
    20    10    11    2
    21    11    12    1
    22    12    13    1
    23    13    14    2
    24    17    18   ar
    25    18    19   ar
    26    19    20   ar
    27    20    21   ar
    28    21    22    1
    29    22    23   ar
    30    23    24    2
    31    23    25   ar
    32    25    26   ar
    33    26    27   ar
    34    27    28    1
    35    27    29   ar
    36    29    30   ar
    37    30    31   ar
    38    31    32   ar
    39    32    33   ar
    40    33    34    2
    41    21    16   ar
    42    33    22   ar
    43    14     1   ar
    44    32    26   ar
    45    14     6   ar
    46    13     8    1
    47    36    38    1
    48    36    39    1
    49    43    44    1
@<TRIPOS>MOLECULE
*****
 44 49 0 0 0
SMALL
GASTEIGER

@<TRIPOS>ATOM
      1 C         140.7463  143.0048  157.4855 C.ar    1  UNL1        0.0115
      2 C         141.8269  144.0447  157.5164 C.ar    1  UNL1        0.0579
      3 CL        143.1140  143.7677  158.2353 Cl      1  UNL1       -0.0822
      4 C         141.6204  145.3616  156.8285 C.ar    1  UNL1        0.0174
      5 C         140.3334  145.6386  156.1097 C.ar    1  UNL1        0.0716
      6 C         139.2528  144.5986  156.0787 C.ar    1  UNL1        0.0854
      7 N         137.8889  144.5866  155.4545 N.2     1  UNL1       -0.2455
      8 C         137.2525  143.2623  155.7565 C.2     1  UNL1        0.0774
      9 C         135.9146  142.6866  155.3979 C.2     1  UNL1        0.0164
     10 C         135.5473  141.3045  155.8503 C.2     1  UNL1       -0.0007
     11 C         136.5178  140.4980  156.6612 C.2     1  UNL1       -0.0233
     12 C         137.8557  141.0737  157.0199 C.3     1  UNL1        0.0536
     13 C         138.2230  142.4559  156.5675 C.2     1  UNL1        0.0013
     14 C         139.4592  143.2818  156.7666 C.ar    1  UNL1        0.0164
     15 C         139.9512  142.6726  160.3590 C.3     1  UNL1        0.0326
     16 C         140.5553  141.5218  159.6101 C.ar    1  UNL1       -0.0055
     17 C         140.9528  141.6879  158.1734 C.ar    1  UNL1       -0.0017
     18 C         141.5569  140.5371  157.4245 C.ar    1  UNL1       -0.0002
     19 C         141.7634  139.2203  158.1124 C.ar    1  UNL1        0.0015
     20 C         141.3658  139.0542  159.5492 C.ar    1  UNL1        0.0174
     21 C         140.7618  140.2050  160.2981 C.ar    1  UNL1        0.0671
     22 N         140.3642  140.0389  161.7349 N.ar    1  UNL1       -0.2272
     23 C         139.0073  139.5009  162.0802 C.ar    1  UNL1        0.2697
     24 O         138.0480  139.1289  160.9888 O.2     1  UNL1       -0.2664
     25 C         138.6097  139.3348  163.5170 C.ar    1  UNL1        0.0797
     26 C         139.5691  139.7068  164.6085 C.ar    1  UNL1        0.0835
     27 C         139.1715  139.5408  166.0452 C.ar    1  UNL1        0.0741
     28 CL        137.8146  139.0027  166.3906 Cl      1  UNL1       -0.0807
     29 C         140.1309  139.9128  167.1367 C.ar    1  UNL1        0.0144
     30 C         141.4878  140.4509  166.7913 C.ar    1  UNL1        0.0200
     31 C         141.8854  140.6169  165.3545 C.ar    1  UNL1        0.0844
     32 N         140.9260  140.2449  164.2631 N.ar    1  UNL1       -0.2576
     33 C         141.3235  140.4109  162.8263 C.ar    1  UNL1        0.3416
     34 O         142.6805  140.9491  162.4810 O.2     1  UNL1       -0.2455
     35 C         140.1269  146.9554  155.4218 C.2     1  UNL1        0.2442
     36 N         139.3987  148.0626  156.1245 N.am    1  UNL1       -0.3253
     37 O         140.6487  147.1651  154.0311 O.2     1  UNL1       -0.2703
     38 H         139.0563  147.9250  157.0372 H       1  UNL1        0.1453
     39 H         139.2632  148.9269  155.6730 H       1  UNL1        0.1453
     40 C         134.2093  140.7287  155.4916 C.3     1  UNL1        0.1069
     41 C         134.3175  141.3304  154.1219 C.3     1  UNL1        0.0339
     42 C         134.1012  140.1270  156.8614 C.3     1  UNL1        0.0339
     43 O         132.8715  140.1530  155.1331 O.3     1  UNL1       -0.3827
     44 H         132.6491  140.3957  154.2207 H       1  UNL1        0.2107
@<TRIPOS>BOND
     1    15    16    1
     2    16    17   ar
     3    17     1    1
     4     1     2   ar
     5     2     3    1
     6     2     4   ar
     7     4     5   ar
     8     5    35    1
     9    35    36   am
    10    35    37    2
    11     5     6   ar
    12     6     7    2
    13     7     8    1
    14     8     9    2
    15     9    10    1
    16    10    40    1
    17    40    41    1
    18    40    42    1
    19    40    43    1
    20    10    11    2
    21    11    12    1
    22    12    13    1
    23    13    14    2
    24    17    18   ar
    25    18    19   ar
    26    19    20   ar
    27    20    21   ar
    28    21    22    1
    29    22    23   ar
    30    23    24    2
    31    23    25   ar
    32    25    26   ar
    33    26    27   ar
    34    27    28    1
    35    27    29   ar
    36    29    30   ar
    37    30    31   ar
    38    31    32   ar
    39    32    33   ar
    40    33    34    2
    41    21    16   ar
    42    33    22   ar
    43    14     1   ar
    44    32    26   ar
    45    14     6   ar
    46    13     8    1
    47    36    38    1
    48    36    39    1
    49    43    44    1
