@<TRIPOS>MOLECULE
*****
 35 39 0 0 0
SMALL
GASTEIGER

@<TRIPOS>ATOM
      1 N         143.5335  139.5023  163.0815 N.3     1  UNL1       -0.2726
      2 C         144.6898  140.3862  162.7184 C.3     1  UNL1        0.0721
      3 C         145.1599  141.6377  163.3987 C.3     1  UNL1        0.0177
      4 C         144.5898  142.3145  164.6099 C.3     1  UNL1        0.0055
      5 C         144.1835  143.1418  165.7933 C.3     1  UNL1        0.0045
      6 C         143.4089  141.9069  165.4401 C.3     1  UNL1        0.0203
      7 C         142.5063  140.7218  165.2640 C.3     1  UNL1        0.0214
      8 C         142.5617  139.6516  164.2144 C.3     1  UNL1        0.0724
      9 C         142.5529  142.2408  166.6258 C.ar    1  UNL1       -0.0228
     10 C         141.1013  142.5669  166.4347 C.ar    1  UNL1       -0.0043
     11 C         140.2453  142.9009  167.6204 C.ar    1  UNL1        0.0035
     12 C         140.8409  142.9086  168.9970 C.ar    1  UNL1        0.0714
     13 C         142.2926  142.5824  169.1881 C.ar    1  UNL1        0.0035
     14 C         143.1485  142.2485  168.0024 C.ar    1  UNL1       -0.0043
     15 C         139.9850  143.2425  170.1827 C.3     1  UNL1        0.4186
     16 F         139.1290  143.5765  171.3684 F       1  UNL1       -0.1659
     17 F         140.4902  144.6545  170.1497 F       1  UNL1       -0.1659
     18 F         139.4798  141.8306  170.2158 F       1  UNL1       -0.1659
     19 C         143.3209  138.3116  162.1943 C.3     1  UNL1        0.0730
     20 C         143.9794  138.2524  160.8479 C.3     1  UNL1        0.0294
     21 C         143.1988  138.6002  159.6152 C.3     1  UNL1        0.0666
     22 S         143.4683  139.8884  158.8954 S.3     1  UNL1       -0.0756
     23 C         142.0627  142.9875  160.7621 C.ar    1  UNL1        0.1740
     24 N         143.4618  143.4387  160.4640 N.ar    1  UNL1       -0.1277
     25 N         144.1586  142.3327  159.7285 N.ar    1  UNL1       -0.1221
     26 C         143.1902  141.1979  159.5720 C.ar    1  UNL1        0.1932
     27 N         141.8948  141.6027  160.2108 N.ar    1  UNL1       -0.2880
     28 C         140.6501  140.7689  160.2853 C.3     1  UNL1        0.1340
     29 C         138.8448  144.7910  164.5402 C.3     1  UNL1        0.0594
     30 C         139.5362  144.6108  163.2213 C.ar    1  UNL1        0.0883
     31 N         139.2708  145.3974  161.9720 N.ar    1  UNL1       -0.2469
     32 C         140.1850  144.8851  160.8987 C.ar    1  UNL1        0.0685
     33 C         140.2563  145.3878  159.4872 C.3     1  UNL1        0.0527
     34 C         141.0153  143.7818  161.4847 C.ar    1  UNL1        0.0799
     35 S         140.6143  143.6123  162.9202 S.2     1  UNL1       -0.0680
@<TRIPOS>BOND
     1    29    30    1
     2    30    31   ar
     3    31    32   ar
     4    32    33    1
     5    32    34   ar
     6    34    23    1
     7    23    24   ar
     8    24    25   ar
     9    25    26   ar
    10    26    22    1
    11    22    21    1
    12    21    20    1
    13    20    19    1
    14    19     1    1
    15     1     2    1
    16     2     3    1
    17     3     4    1
    18     4     5    1
    19     5     6    1
    20     6     9    1
    21     9    10   ar
    22    10    11   ar
    23    11    12   ar
    24    12    15    1
    25    15    16    1
    26    15    17    1
    27    15    18    1
    28    12    13   ar
    29    13    14   ar
    30     6     7    1
    31     7     8    1
    32    26    27   ar
    33    27    28    1
    34    34    35   ar
    35    35    30   ar
    36    27    23   ar
    37     8     1    1
    38     6     4    1
    39    14     9   ar
@<TRIPOS>MOLECULE
*****
 35 39 0 0 0
SMALL
GASTEIGER

@<TRIPOS>ATOM
      1 N         140.9516  138.2067  163.2496 N.3     1  UNL1       -0.2726
      2 C         139.5597  137.7155  163.5170 C.3     1  UNL1        0.0721
      3 C         138.6846  137.9862  164.7048 C.3     1  UNL1        0.0177
      4 C         138.9851  138.8146  165.9186 C.3     1  UNL1        0.0055
      5 C         139.0798  139.5870  167.2010 C.3     1  UNL1        0.0045
      6 C         140.2351  139.5772  166.2444 C.3     1  UNL1        0.0203
      7 C         141.4932  139.6995  165.4368 C.3     1  UNL1        0.0214
      8 C         141.8121  139.0897  164.1040 C.3     1  UNL1        0.0724
      9 C         140.9229  140.4616  167.2418 C.ar    1  UNL1       -0.0228
     10 C         142.1775  139.9947  167.9185 C.ar    1  UNL1       -0.0043
     11 C         142.8653  140.8791  168.9159 C.ar    1  UNL1        0.0035
     12 C         142.2986  142.2304  169.2365 C.ar    1  UNL1        0.0714
     13 C         141.0439  142.6974  168.5596 C.ar    1  UNL1        0.0035
     14 C         140.3562  141.8129  167.5623 C.ar    1  UNL1       -0.0043
     15 C         142.9863  143.1149  170.2338 C.3     1  UNL1        0.4186
     16 F         143.6742  143.9993  171.2312 F       1  UNL1       -0.1659
     17 F         144.2131  142.2558  170.1495 F       1  UNL1       -0.1659
     18 F         141.7596  143.9739  170.3181 F       1  UNL1       -0.1659
     19 C         141.5640  137.7551  161.9569 C.3     1  UNL1        0.0730
     20 C         143.0119  138.0290  161.6769 C.3     1  UNL1        0.0294
     21 C         143.4563  138.3623  160.2835 C.3     1  UNL1        0.0666
     22 S         143.7048  139.7902  159.8969 S.3     1  UNL1       -0.0756
     23 C         142.3058  142.5951  162.1860 C.ar    1  UNL1        0.1740
     24 N         143.7470  142.5739  162.6014 N.ar    1  UNL1       -0.1277
     25 N         144.4464  141.5206  161.7945 N.ar    1  UNL1       -0.1221
     26 C         143.4376  140.8908  160.8804 C.ar    1  UNL1        0.1932
     27 N         142.1146  141.5550  161.1224 N.ar    1  UNL1       -0.2880
     28 C         140.8265  141.2350  160.4233 C.3     1  UNL1        0.1340
     29 C         138.7484  144.7697  165.4259 C.3     1  UNL1        0.0594
     30 C         139.6074  144.4977  164.2267 C.ar    1  UNL1        0.0883
     31 N         139.6052  145.2776  162.9455 N.ar    1  UNL1       -0.2469
     32 C         140.6158  144.6599  162.0251 C.ar    1  UNL1        0.0685
     33 C         140.9424  145.1227  160.6360 C.3     1  UNL1        0.0527
     34 C         141.2425  143.4981  162.7375 C.ar    1  UNL1        0.0799
     35 S         140.6192  143.3979  164.0982 S.2     1  UNL1       -0.0680
@<TRIPOS>BOND
     1    29    30    1
     2    30    31   ar
     3    31    32   ar
     4    32    33    1
     5    32    34   ar
     6    34    23    1
     7    23    24   ar
     8    24    25   ar
     9    25    26   ar
    10    26    22    1
    11    22    21    1
    12    21    20    1
    13    20    19    1
    14    19     1    1
    15     1     2    1
    16     2     3    1
    17     3     4    1
    18     4     5    1
    19     5     6    1
    20     6     9    1
    21     9    10   ar
    22    10    11   ar
    23    11    12   ar
    24    12    15    1
    25    15    16    1
    26    15    17    1
    27    15    18    1
    28    12    13   ar
    29    13    14   ar
    30     6     7    1
    31     7     8    1
    32    26    27   ar
    33    27    28    1
    34    34    35   ar
    35    35    30   ar
    36    27    23   ar
    37     8     1    1
    38     6     4    1
    39    14     9   ar
@<TRIPOS>MOLECULE
*****
 35 39 0 0 0
SMALL
GASTEIGER

@<TRIPOS>ATOM
      1 N         138.5929  143.4646  163.7242 N.3     1  UNL1       -0.2726
      2 C         137.6416  142.4223  163.2157 C.3     1  UNL1        0.0721
      3 C         137.4527  141.0142  163.6969 C.3     1  UNL1        0.0177
      4 C         138.1684  140.3005  164.8053 C.3     1  UNL1        0.0055
      5 C         138.7551  139.4113  165.8613 C.3     1  UNL1        0.0045
      6 C         139.2499  140.8189  165.7063 C.3     1  UNL1        0.0203
      7 C         139.8826  142.1788  165.7214 C.3     1  UNL1        0.0214
      8 C         139.5903  143.3563  164.8393 C.3     1  UNL1        0.0724
      9 C         140.1734  140.5001  166.8446 C.ar    1  UNL1       -0.0228
     10 C         141.6476  140.3702  166.6005 C.ar    1  UNL1       -0.0043
     11 C         142.5711  140.0515  167.7388 C.ar    1  UNL1        0.0035
     12 C         142.0202  139.8627  169.1211 C.ar    1  UNL1        0.0714
     13 C         140.5458  139.9927  169.3653 C.ar    1  UNL1        0.0035
     14 C         139.6225  140.3114  168.2270 C.ar    1  UNL1       -0.0043
     15 C         142.9436  139.5440  170.2594 C.3     1  UNL1        0.4186
     16 F         143.8670  139.2252  171.3978 F       1  UNL1       -0.1659
     17 F         142.4348  138.1330  170.2770 F       1  UNL1       -0.1659
     18 F         143.4523  140.9550  170.2420 F       1  UNL1       -0.1659
     19 C         138.5398  144.7906  163.0250 C.3     1  UNL1        0.0730
     20 C         139.8068  145.4429  162.5569 C.3     1  UNL1        0.0294
     21 C         139.9761  145.8005  161.1100 C.3     1  UNL1        0.0666
     22 S         141.0630  145.1573  160.3007 S.3     1  UNL1       -0.0756
     23 C         142.3128  141.6920  161.5234 C.ar    1  UNL1        0.1740
     24 N         143.5095  142.5496  161.8104 N.ar    1  UNL1       -0.1277
     25 N         143.1870  143.9520  161.3873 N.ar    1  UNL1       -0.1221
     26 C         141.7910  143.9612  160.8388 C.ar    1  UNL1        0.1932
     27 N         141.2507  142.5645  160.9229 N.ar    1  UNL1       -0.2880
     28 C         139.8875  142.1185  160.4836 C.3     1  UNL1        0.1340
     29 C         141.1372  137.0788  163.8076 C.3     1  UNL1        0.0594
     30 C         141.6579  138.0999  162.8400 C.ar    1  UNL1        0.0883
     31 N         142.3863  137.8114  161.5609 N.ar    1  UNL1       -0.2469
     32 C         142.7203  139.1219  160.9120 C.ar    1  UNL1        0.0685
     33 C         143.4484  139.3024  159.6129 C.3     1  UNL1        0.0527
     34 C         142.1983  140.2203  161.7901 C.ar    1  UNL1        0.0799
     35 S         141.5417  139.5886  162.9817 S.2     1  UNL1       -0.0680
@<TRIPOS>BOND
     1    29    30    1
     2    30    31   ar
     3    31    32   ar
     4    32    33    1
     5    32    34   ar
     6    34    23    1
     7    23    24   ar
     8    24    25   ar
     9    25    26   ar
    10    26    22    1
    11    22    21    1
    12    21    20    1
    13    20    19    1
    14    19     1    1
    15     1     2    1
    16     2     3    1
    17     3     4    1
    18     4     5    1
    19     5     6    1
    20     6     9    1
    21     9    10   ar
    22    10    11   ar
    23    11    12   ar
    24    12    15    1
    25    15    16    1
    26    15    17    1
    27    15    18    1
    28    12    13   ar
    29    13    14   ar
    30     6     7    1
    31     7     8    1
    32    26    27   ar
    33    27    28    1
    34    34    35   ar
    35    35    30   ar
    36    27    23   ar
    37     8     1    1
    38     6     4    1
    39    14     9   ar
@<TRIPOS>MOLECULE
*****
 35 39 0 0 0
SMALL
GASTEIGER

@<TRIPOS>ATOM
      1 N         138.9655  144.3273  163.1449 N.3     1  UNL1       -0.2726
      2 C         137.8506  143.4300  162.6954 C.3     1  UNL1        0.0721
      3 C         137.4346  142.1025  163.2564 C.3     1  UNL1        0.0177
      4 C         138.0307  141.3443  164.4053 C.3     1  UNL1        0.0055
      5 C         138.4700  140.4317  165.5117 C.3     1  UNL1        0.0045
      6 C         139.1900  141.7265  165.2770 C.3     1  UNL1        0.0203
      7 C         140.0396  142.9612  165.2151 C.3     1  UNL1        0.0214
      8 C         139.9397  144.1187  164.2663 C.3     1  UNL1        0.0724
      9 C         140.0566  141.3243  166.4335 C.ar    1  UNL1       -0.0228
     10 C         139.7185  140.1021  167.2346 C.ar    1  UNL1       -0.0043
     11 C         140.5851  139.7000  168.3911 C.ar    1  UNL1        0.0035
     12 C         141.7897  140.5201  168.7463 C.ar    1  UNL1        0.0714
     13 C         142.1279  141.7424  167.9451 C.ar    1  UNL1        0.0035
     14 C         141.2613  142.1444  166.7887 C.ar    1  UNL1       -0.0043
     15 C         142.6563  140.1180  169.9027 C.3     1  UNL1        0.4186
     16 F         143.5230  139.7159  171.0591 F       1  UNL1       -0.1659
     17 F         143.5816  141.2610  169.6067 F       1  UNL1       -0.1659
     18 F         141.7312  138.9750  170.1988 F       1  UNL1       -0.1659
     19 C         139.1275  145.6017  162.3706 C.3     1  UNL1        0.0730
     20 C         140.3265  145.7974  161.4908 C.3     1  UNL1        0.0294
     21 C         140.5039  144.9507  160.2654 C.3     1  UNL1        0.0666
     22 S         141.5038  143.8326  160.2646 S.3     1  UNL1       -0.0756
     23 C         141.1512  140.5610  162.3231 C.ar    1  UNL1        0.1740
     24 N         140.0587  140.3855  161.3104 N.ar    1  UNL1       -0.1277
     25 N         140.0578  141.5896  160.4161 N.ar    1  UNL1       -0.1221
     26 C         141.1498  142.5094  160.8759 C.ar    1  UNL1        0.1932
     27 N         141.8255  141.8737  162.0546 N.ar    1  UNL1       -0.2880
     28 C         142.9740  142.4496  162.8287 C.3     1  UNL1        0.1340
     29 C         143.6244  138.2477  166.3744 C.3     1  UNL1        0.0594
     30 C         142.6437  138.5304  165.2751 C.ar    1  UNL1        0.0883
     31 N         141.4650  137.6799  164.9050 N.ar    1  UNL1       -0.2469
     32 C         140.7624  138.3370  163.7541 C.ar    1  UNL1        0.0685
     33 C         139.5313  137.8270  163.0653 C.3     1  UNL1        0.0527
     34 C         141.5070  139.5937  163.4130 C.ar    1  UNL1        0.0799
     35 S         142.6697  139.7132  164.3531 S.2     1  UNL1       -0.0680
@<TRIPOS>BOND
     1    29    30    1
     2    30    31   ar
     3    31    32   ar
     4    32    33    1
     5    32    34   ar
     6    34    23    1
     7    23    24   ar
     8    24    25   ar
     9    25    26   ar
    10    26    22    1
    11    22    21    1
    12    21    20    1
    13    20    19    1
    14    19     1    1
    15     1     2    1
    16     2     3    1
    17     3     4    1
    18     4     5    1
    19     5     6    1
    20     6     9    1
    21     9    10   ar
    22    10    11   ar
    23    11    12   ar
    24    12    15    1
    25    15    16    1
    26    15    17    1
    27    15    18    1
    28    12    13   ar
    29    13    14   ar
    30     6     7    1
    31     7     8    1
    32    26    27   ar
    33    27    28    1
    34    34    35   ar
    35    35    30   ar
    36    27    23   ar
    37     8     1    1
    38     6     4    1
    39    14     9   ar
@<TRIPOS>MOLECULE
*****
 35 39 0 0 0
SMALL
GASTEIGER

@<TRIPOS>ATOM
      1 N         143.6925  139.4228  163.0564 N.3     1  UNL1       -0.2726
      2 C         144.7943  140.3582  162.6548 C.3     1  UNL1        0.0721
      3 C         145.2010  141.6530  163.2935 C.3     1  UNL1        0.0177
      4 C         144.6065  142.3324  164.4915 C.3     1  UNL1        0.0055
      5 C         144.1667  143.1702  165.6554 C.3     1  UNL1        0.0045
      6 C         143.4583  141.8846  165.3466 C.3     1  UNL1        0.0203
      7 C         142.6212  140.6469  165.2150 C.3     1  UNL1        0.0214
      8 C         142.7253  139.5513  164.1958 C.3     1  UNL1        0.0724
      9 C         142.5970  142.2053  166.5322 C.ar    1  UNL1       -0.0228
     10 C         141.1499  142.5484  166.3369 C.ar    1  UNL1       -0.0043
     11 C         140.2887  142.8691  167.5225 C.ar    1  UNL1        0.0035
     12 C         140.8745  142.8465  168.9031 C.ar    1  UNL1        0.0714
     13 C         142.3217  142.5034  169.0984 C.ar    1  UNL1        0.0035
     14 C         143.1829  142.1828  167.9128 C.ar    1  UNL1       -0.0043
     15 C         140.0134  143.1672  170.0887 C.3     1  UNL1        0.4186
     16 F         139.1522  143.4879  171.2743 F       1  UNL1       -0.1659
     17 F         140.4878  144.5896  170.0485 F       1  UNL1       -0.1659
     18 F         139.5389  141.7448  170.1289 F       1  UNL1       -0.1659
     19 C         143.5374  138.1969  162.2062 C.3     1  UNL1        0.0730
     20 C         143.8920  138.2446  160.7495 C.3     1  UNL1        0.0294
     21 C         142.9802  137.6209  159.7348 C.3     1  UNL1        0.0666
     22 S         141.7738  138.3692  159.2503 S.3     1  UNL1       -0.0756
     23 C         139.2770  139.9061  161.7937 C.ar    1  UNL1        0.1740
     24 N         138.6590  138.5597  161.5583 N.ar    1  UNL1       -0.1277
     25 N         139.5191  137.8202  160.5770 N.ar    1  UNL1       -0.1221
     26 C         140.6686  138.7094  160.2058 C.ar    1  UNL1        0.1932
     27 N         140.5189  139.9986  160.9578 N.ar    1  UNL1       -0.2880
     28 C         141.4482  141.1740  160.8863 C.3     1  UNL1        0.1340
     29 C         137.4904  144.5342  163.6020 C.3     1  UNL1        0.0594
     30 C         137.9249  143.1000  163.5363 C.ar    1  UNL1        0.0883
     31 N         137.9333  142.1281  164.6787 N.ar    1  UNL1       -0.2469
     32 C         138.4409  140.8133  164.1650 C.ar    1  UNL1        0.0685
     33 C         138.6130  139.5593  164.9700 C.3     1  UNL1        0.0527
     34 C         138.7460  140.9728  162.7051 C.ar    1  UNL1        0.0799
     35 S         138.4271  142.3860  162.3165 S.2     1  UNL1       -0.0680
@<TRIPOS>BOND
     1    29    30    1
     2    30    31   ar
     3    31    32   ar
     4    32    33    1
     5    32    34   ar
     6    34    23    1
     7    23    24   ar
     8    24    25   ar
     9    25    26   ar
    10    26    22    1
    11    22    21    1
    12    21    20    1
    13    20    19    1
    14    19     1    1
    15     1     2    1
    16     2     3    1
    17     3     4    1
    18     4     5    1
    19     5     6    1
    20     6     9    1
    21     9    10   ar
    22    10    11   ar
    23    11    12   ar
    24    12    15    1
    25    15    16    1
    26    15    17    1
    27    15    18    1
    28    12    13   ar
    29    13    14   ar
    30     6     7    1
    31     7     8    1
    32    26    27   ar
    33    27    28    1
    34    34    35   ar
    35    35    30   ar
    36    27    23   ar
    37     8     1    1
    38     6     4    1
    39    14     9   ar
@<TRIPOS>MOLECULE
*****
 35 39 0 0 0
SMALL
GASTEIGER

@<TRIPOS>ATOM
      1 N         139.8892  144.5203  159.9984 N.3     1  UNL1       -0.2726
      2 C         140.1147  145.7825  160.7769 C.3     1  UNL1        0.0721
      3 C         140.0677  145.9860  162.2623 C.3     1  UNL1        0.0177
      4 C         139.7836  144.9778  163.3360 C.3     1  UNL1        0.0055
      5 C         139.5274  144.1395  164.5532 C.3     1  UNL1        0.0045
      6 C         139.4763  143.5170  163.1895 C.3     1  UNL1        0.0203
      7 C         139.3772  142.7036  161.9330 C.3     1  UNL1        0.0214
      8 C         139.5610  143.1500  160.5129 C.3     1  UNL1        0.0724
      9 C         139.1557  142.2398  163.9078 C.ar    1  UNL1       -0.0228
     10 C         139.7660  141.9603  165.2492 C.ar    1  UNL1       -0.0043
     11 C         139.4454  140.6830  165.9676 C.ar    1  UNL1        0.0035
     12 C         138.5146  139.6854  165.3445 C.ar    1  UNL1        0.0714
     13 C         137.9043  139.9649  164.0030 C.ar    1  UNL1        0.0035
     14 C         138.2249  141.2421  163.2847 C.ar    1  UNL1       -0.0043
     15 C         138.1940  138.4082  166.0628 C.3     1  UNL1        0.4186
     16 F         137.8734  137.1310  166.7811 F       1  UNL1       -0.1659
     17 F         137.9434  139.1805  167.3241 F       1  UNL1       -0.1659
     18 F         138.4445  137.6359  164.8015 F       1  UNL1       -0.1659
     19 C         140.0076  144.6449  158.5083 C.3     1  UNL1        0.0730
     20 C         141.3577  144.8013  157.8736 C.3     1  UNL1        0.0294
     21 C         142.1776  143.5886  157.5465 C.3     1  UNL1        0.0666
     22 S         143.4011  143.2704  158.3539 S.3     1  UNL1       -0.0756
     23 C         143.1753  141.7887  161.9342 C.ar    1  UNL1        0.1740
     24 N         142.9953  143.2513  162.2140 N.ar    1  UNL1       -0.1277
     25 N         143.0580  143.9844  160.9069 N.ar    1  UNL1       -0.1221
     26 C         143.2767  142.9748  159.8193 C.ar    1  UNL1        0.1932
     27 N         143.3492  141.6178  160.4542 N.ar    1  UNL1       -0.2880
     28 C         143.5588  140.3181  159.7353 C.3     1  UNL1        0.1340
     29 C         141.6805  137.6885  164.9067 C.3     1  UNL1        0.0594
     30 C         142.4934  138.8052  164.3216 C.ar    1  UNL1        0.0883
     31 N         143.8832  139.1925  164.7315 N.ar    1  UNL1       -0.2469
     32 C         144.3079  140.3573  163.8871 C.ar    1  UNL1        0.0685
     33 C         145.6283  141.0653  163.9613 C.3     1  UNL1        0.0527
     34 C         143.1804  140.6898  162.9553 C.ar    1  UNL1        0.0799
     35 S         142.0589  139.7305  163.2239 S.2     1  UNL1       -0.0680
@<TRIPOS>BOND
     1    29    30    1
     2    30    31   ar
     3    31    32   ar
     4    32    33    1
     5    32    34   ar
     6    34    23    1
     7    23    24   ar
     8    24    25   ar
     9    25    26   ar
    10    26    22    1
    11    22    21    1
    12    21    20    1
    13    20    19    1
    14    19     1    1
    15     1     2    1
    16     2     3    1
    17     3     4    1
    18     4     5    1
    19     5     6    1
    20     6     9    1
    21     9    10   ar
    22    10    11   ar
    23    11    12   ar
    24    12    15    1
    25    15    16    1
    26    15    17    1
    27    15    18    1
    28    12    13   ar
    29    13    14   ar
    30     6     7    1
    31     7     8    1
    32    26    27   ar
    33    27    28    1
    34    34    35   ar
    35    35    30   ar
    36    27    23   ar
    37     8     1    1
    38     6     4    1
    39    14     9   ar
@<TRIPOS>MOLECULE
*****
 35 39 0 0 0
SMALL
GASTEIGER

@<TRIPOS>ATOM
      1 N         142.3484  143.7677  161.4416 N.3     1  UNL1       -0.2726
      2 C         143.4797  143.1038  160.7138 C.3     1  UNL1        0.0721
      3 C         144.4397  142.0694  161.2222 C.3     1  UNL1        0.0177
      4 C         144.5057  141.4434  162.5837 C.3     1  UNL1        0.0055
      5 C         144.7461  140.7017  163.8651 C.3     1  UNL1        0.0045
      6 C         143.6279  141.6972  163.7733 C.3     1  UNL1        0.0203
      7 C         142.4673  142.6397  163.8950 C.3     1  UNL1        0.0214
      8 C         141.8978  143.5611  162.8574 C.3     1  UNL1        0.0724
      9 C         143.3444  141.3419  165.2028 C.ar    1  UNL1       -0.0228
     10 C         143.2435  142.4224  166.2383 C.ar    1  UNL1       -0.0043
     11 C         142.9600  142.0670  167.6678 C.ar    1  UNL1        0.0035
     12 C         142.7776  140.6312  168.0617 C.ar    1  UNL1        0.0714
     13 C         142.8786  139.5507  167.0261 C.ar    1  UNL1        0.0035
     14 C         143.1620  139.9061  165.5967 C.ar    1  UNL1       -0.0043
     15 C         142.4942  140.2759  169.4911 C.3     1  UNL1        0.4186
     16 F         142.2108  139.9204  170.9206 F       1  UNL1       -0.1659
     17 F         142.5180  138.8192  169.1337 F       1  UNL1       -0.1659
     18 F         142.4704  141.7324  169.8487 F       1  UNL1       -0.1659
     19 C         141.5640  144.7707  160.6488 C.3     1  UNL1        0.0730
     20 C         141.3133  144.5414  159.1878 C.3     1  UNL1        0.0294
     21 C         139.9950  143.9910  158.7304 C.3     1  UNL1        0.0666
     22 S         139.6221  142.5738  159.0509 S.3     1  UNL1       -0.0756
     23 C         138.6058  141.2458  162.5535 C.ar    1  UNL1        0.1740
     24 N         137.4981  142.2196  162.2802 N.ar    1  UNL1       -0.1277
     25 N         137.7440  142.8356  160.9348 N.ar    1  UNL1       -0.1221
     26 C         139.0037  142.2425  160.3767 C.ar    1  UNL1        0.1932
     27 N         139.5362  141.2600  161.3772 N.ar    1  UNL1       -0.2880
     28 C         140.7809  140.4362  161.2274 C.3     1  UNL1        0.1340
     29 C         139.2800  139.7828  167.5821 C.3     1  UNL1        0.0594
     30 C         139.0664  139.7329  166.0982 C.ar    1  UNL1        0.0883
     31 N         138.9104  138.4913  165.2712 N.ar    1  UNL1       -0.2469
     32 C         138.7189  138.9069  163.8427 C.ar    1  UNL1        0.0685
     33 C         138.5240  137.9857  162.6749 C.3     1  UNL1        0.0527
     34 C         138.7565  140.4054  163.7869 C.ar    1  UNL1        0.0799
     35 S         138.9713  140.9158  165.1809 S.2     1  UNL1       -0.0680
@<TRIPOS>BOND
     1    29    30    1
     2    30    31   ar
     3    31    32   ar
     4    32    33    1
     5    32    34   ar
     6    34    23    1
     7    23    24   ar
     8    24    25   ar
     9    25    26   ar
    10    26    22    1
    11    22    21    1
    12    21    20    1
    13    20    19    1
    14    19     1    1
    15     1     2    1
    16     2     3    1
    17     3     4    1
    18     4     5    1
    19     5     6    1
    20     6     9    1
    21     9    10   ar
    22    10    11   ar
    23    11    12   ar
    24    12    15    1
    25    15    16    1
    26    15    17    1
    27    15    18    1
    28    12    13   ar
    29    13    14   ar
    30     6     7    1
    31     7     8    1
    32    26    27   ar
    33    27    28    1
    34    34    35   ar
    35    35    30   ar
    36    27    23   ar
    37     8     1    1
    38     6     4    1
    39    14     9   ar
@<TRIPOS>MOLECULE
*****
 35 39 0 0 0
SMALL
GASTEIGER

@<TRIPOS>ATOM
      1 N         144.3197  141.8002  162.5291 N.3     1  UNL1       -0.2726
      2 C         144.7080  140.3514  162.5208 C.3     1  UNL1        0.0721
      3 C         144.4312  139.3031  163.5573 C.3     1  UNL1        0.0177
      4 C         143.6977  139.4446  164.8582 C.3     1  UNL1        0.0055
      5 C         143.0069  139.3679  166.1874 C.3     1  UNL1        0.0045
      6 C         143.0599  140.6695  165.4437 C.3     1  UNL1        0.0203
      7 C         142.9981  142.0553  164.8730 C.3     1  UNL1        0.0214
      8 C         143.5587  142.5586  163.5759 C.3     1  UNL1        0.0724
      9 C         142.2910  141.2333  166.6017 C.ar    1  UNL1       -0.0228
     10 C         142.5653  140.7448  167.9931 C.ar    1  UNL1       -0.0043
     11 C         141.7963  141.3086  169.1511 C.ar    1  UNL1        0.0035
     12 C         140.7532  142.3609  168.9176 C.ar    1  UNL1        0.0714
     13 C         140.4789  142.8495  167.5261 C.ar    1  UNL1        0.0035
     14 C         141.2479  142.2856  166.3682 C.ar    1  UNL1       -0.0043
     15 C         139.9843  142.9248  170.0755 C.3     1  UNL1        0.4186
     16 F         139.2153  143.4886  171.2335 F       1  UNL1       -0.1659
     17 F         139.6449  141.5350  170.5267 F       1  UNL1       -0.1659
     18 F         140.3237  144.3144  169.6243 F       1  UNL1       -0.1659
     19 C         144.7492  142.5960  161.3323 C.3     1  UNL1        0.0730
     20 C         144.2856  142.1991  159.9621 C.3     1  UNL1        0.0294
     21 C         143.4826  143.1587  159.1348 C.3     1  UNL1        0.0666
     22 S         141.9841  143.1292  159.1952 S.3     1  UNL1       -0.0756
     23 C         140.1602  142.0507  162.4471 C.ar    1  UNL1        0.1740
     24 N         140.2801  143.5307  162.6593 N.ar    1  UNL1       -0.1277
     25 N         140.9779  144.1149  161.4670 N.ar    1  UNL1       -0.1221
     26 C         141.2893  142.9959  160.5179 C.ar    1  UNL1        0.1932
     27 N         140.7839  141.7201  161.1237 N.ar    1  UNL1       -0.2880
     28 C         140.8847  140.3537  160.5131 C.3     1  UNL1        0.1340
     29 C         139.1039  137.6322  165.1382 C.3     1  UNL1        0.0594
     30 C         139.0421  139.0419  164.6295 C.ar    1  UNL1        0.0883
     31 N         138.0663  140.0944  165.0653 N.ar    1  UNL1       -0.2469
     32 C         138.3664  141.3497  164.3008 C.ar    1  UNL1        0.0685
     33 C         137.6338  142.6530  164.4231 C.3     1  UNL1        0.0527
     34 C         139.5276  141.0728  163.3926 C.ar    1  UNL1        0.0799
     35 S         139.9452  139.6465  163.5958 S.2     1  UNL1       -0.0680
@<TRIPOS>BOND
     1    29    30    1
     2    30    31   ar
     3    31    32   ar
     4    32    33    1
     5    32    34   ar
     6    34    23    1
     7    23    24   ar
     8    24    25   ar
     9    25    26   ar
    10    26    22    1
    11    22    21    1
    12    21    20    1
    13    20    19    1
    14    19     1    1
    15     1     2    1
    16     2     3    1
    17     3     4    1
    18     4     5    1
    19     5     6    1
    20     6     9    1
    21     9    10   ar
    22    10    11   ar
    23    11    12   ar
    24    12    15    1
    25    15    16    1
    26    15    17    1
    27    15    18    1
    28    12    13   ar
    29    13    14   ar
    30     6     7    1
    31     7     8    1
    32    26    27   ar
    33    27    28    1
    34    34    35   ar
    35    35    30   ar
    36    27    23   ar
    37     8     1    1
    38     6     4    1
    39    14     9   ar
@<TRIPOS>MOLECULE
*****
 35 39 0 0 0
SMALL
GASTEIGER

@<TRIPOS>ATOM
      1 N         142.0074  144.2052  160.2236 N.3     1  UNL1       -0.2726
      2 C         140.8918  145.2066  160.2741 C.3     1  UNL1        0.0721
      3 C         140.0791  145.6424  161.4572 C.3     1  UNL1        0.0177
      4 C         140.1812  145.1843  162.8819 C.3     1  UNL1        0.0055
      5 C         140.1152  144.8689  164.3468 C.3     1  UNL1        0.0045
      6 C         141.1213  144.1774  163.4754 C.3     1  UNL1        0.0203
      7 C         142.1914  143.3798  162.7908 C.3     1  UNL1        0.0214
      8 C         142.5858  143.3921  161.3436 C.3     1  UNL1        0.0724
      9 C         141.5493  143.4677  164.7257 C.ar    1  UNL1       -0.0228
     10 C         140.5192  142.9740  165.6979 C.ar    1  UNL1       -0.0043
     11 C         140.9472  142.2643  166.9482 C.ar    1  UNL1        0.0035
     12 C         142.4053  142.0483  167.2262 C.ar    1  UNL1        0.0714
     13 C         143.4355  142.5421  166.2540 C.ar    1  UNL1        0.0035
     14 C         143.0074  143.2517  165.0038 C.ar    1  UNL1       -0.0043
     15 C         142.8334  141.3387  168.4764 C.3     1  UNL1        0.4186
     16 F         143.2615  140.6290  169.7267 F       1  UNL1       -0.1659
     17 F         141.8068  140.2746  168.2239 F       1  UNL1       -0.1659
     18 F         143.8600  142.4027  168.7290 F       1  UNL1       -0.1659
     19 C         142.6264  143.9880  158.8746 C.3     1  UNL1        0.0730
     20 C         142.3075  142.7476  158.0940 C.3     1  UNL1        0.0294
     21 C         140.8971  142.4752  157.6619 C.3     1  UNL1        0.0666
     22 S         140.1559  141.2967  158.2204 S.3     1  UNL1       -0.0756
     23 C         140.4035  140.2621  161.9531 C.ar    1  UNL1        0.1740
     24 N         139.4013  141.3758  162.0268 N.ar    1  UNL1       -0.1277
     25 N         139.1866  141.8988  160.6376 N.ar    1  UNL1       -0.1221
     26 C         140.0561  141.1085  159.7052 C.ar    1  UNL1        0.1932
     27 N         140.8081  140.0970  160.5183 N.ar    1  UNL1       -0.2880
     28 C         141.7921  139.0960  159.9893 C.3     1  UNL1        0.1340
     29 C         143.3985  138.5483  165.9498 C.3     1  UNL1        0.0594
     30 C         142.2884  138.6675  164.9481 C.ar    1  UNL1        0.0883
     31 N         141.0992  137.7600  164.8377 N.ar    1  UNL1       -0.2469
     32 C         140.2484  138.2469  163.7024 C.ar    1  UNL1        0.0685
     33 C         138.9603  137.6331  163.2395 C.3     1  UNL1        0.0527
     34 C         140.9117  139.4553  163.1111 C.ar    1  UNL1        0.0799
     35 S         142.1725  139.7153  163.8810 S.2     1  UNL1       -0.0680
@<TRIPOS>BOND
     1    29    30    1
     2    30    31   ar
     3    31    32   ar
     4    32    33    1
     5    32    34   ar
     6    34    23    1
     7    23    24   ar
     8    24    25   ar
     9    25    26   ar
    10    26    22    1
    11    22    21    1
    12    21    20    1
    13    20    19    1
    14    19     1    1
    15     1     2    1
    16     2     3    1
    17     3     4    1
    18     4     5    1
    19     5     6    1
    20     6     9    1
    21     9    10   ar
    22    10    11   ar
    23    11    12   ar
    24    12    15    1
    25    15    16    1
    26    15    17    1
    27    15    18    1
    28    12    13   ar
    29    13    14   ar
    30     6     7    1
    31     7     8    1
    32    26    27   ar
    33    27    28    1
    34    34    35   ar
    35    35    30   ar
    36    27    23   ar
    37     8     1    1
    38     6     4    1
    39    14     9   ar
