@<TRIPOS>MOLECULE
*****
 21 24 0 0 0
SMALL
GASTEIGER

@<TRIPOS>ATOM
      1 C         140.2883  141.6038  166.7136 C.3     1  UNL1        0.0492
      2 C         139.7779  140.3056  167.2649 C.3     1  UNL1        0.0214
      3 C         139.4470  140.7045  165.8573 C.3     1  UNL1        0.1132
      4 C         141.0331  144.9672  163.8182 C.ar    1  UNL1       -0.0000
      5 C         139.7364  144.8972  164.5691 C.ar    1  UNL1       -0.0003
      6 C         139.4882  143.7761  165.5342 C.ar    1  UNL1       -0.0040
      7 C         140.5366  142.7250  165.7485 C.ar    1  UNL1       -0.0185
      8 C         141.8332  142.7949  164.9976 C.ar    1  UNL1       -0.0040
      9 C         142.0814  143.9161  164.0325 C.ar    1  UNL1       -0.0003
     10 C         141.0435  142.1138  167.9051 C.ar    1  UNL1       -0.0185
     11 C         140.4002  143.0991  168.8353 C.ar    1  UNL1       -0.0040
     12 C         141.1554  143.6091  170.0268 C.ar    1  UNL1       -0.0003
     13 C         142.5539  143.1337  170.2880 C.ar    1  UNL1       -0.0000
     14 C         143.1972  142.1484  169.3579 C.ar    1  UNL1       -0.0003
     15 C         142.4420  141.6384  168.1664 C.ar    1  UNL1       -0.0040
     16 C         138.7701  140.4155  164.5502 C.2     1  UNL1        0.2920
     17 N         139.0323  139.2342  163.6639 N.2     1  UNL1       -0.0652
     18 C         138.1366  139.3458  162.4659 C.3     1  UNL1        0.3129
     19 C         137.3209  140.5961  162.6118 C.3     1  UNL1        0.2574
     20 N         137.7125  141.2573  163.9000 N.pl3   1  UNL1       -0.2190
     21 H         137.3406  142.0964  164.2562 H       1  UNL1        0.2920
@<TRIPOS>BOND
     1     4     5   ar
     2     5     6   ar
     3     6     7   ar
     4     7     1    1
     5     1    10    1
     6    10    11   ar
     7    11    12   ar
     8    12    13   ar
     9    13    14   ar
    10    14    15   ar
    11     1     2    1
    12     2     3    1
    13     3    16    1
    14    16    17    2
    15    17    18    1
    16    18    19    1
    17    19    20    1
    18     7     8   ar
    19     8     9   ar
    20     9     4   ar
    21     3     1    1
    22    20    16    1
    23    15    10   ar
    24    20    21    1
@<TRIPOS>MOLECULE
*****
 21 24 0 0 0
SMALL
GASTEIGER

@<TRIPOS>ATOM
      1 C         139.3119  139.7659  166.3249 C.3     1  UNL1        0.0492
      2 C         138.2235  139.0913  167.1060 C.3     1  UNL1        0.0214
      3 C         139.2671  139.8997  167.8182 C.3     1  UNL1        0.1132
      4 C         142.9718  142.2261  165.4293 C.ar    1  UNL1       -0.0000
      5 C         143.0970  140.7473  165.6468 C.ar    1  UNL1       -0.0003
      6 C         141.8770  139.9272  165.9453 C.ar    1  UNL1       -0.0040
      7 C         140.5319  140.5860  166.0263 C.ar    1  UNL1       -0.0185
      8 C         140.4067  142.0648  165.8088 C.ar    1  UNL1       -0.0040
      9 C         141.6267  142.8849  165.5103 C.ar    1  UNL1       -0.0003
     10 C         138.9329  139.3473  164.9352 C.ar    1  UNL1       -0.0185
     11 C         139.2574  137.9643  164.4538 C.ar    1  UNL1       -0.0040
     12 C         138.8784  137.5457  163.0640 C.ar    1  UNL1       -0.0003
     13 C         138.1750  138.5102  162.1559 C.ar    1  UNL1       -0.0000
     14 C         137.8505  139.8933  162.6373 C.ar    1  UNL1       -0.0003
     15 C         138.2294  140.3119  164.0270 C.ar    1  UNL1       -0.0040
     16 C         139.8438  140.4438  169.0916 C.2     1  UNL1        0.2920
     17 N         139.9934  141.8944  169.4426 N.2     1  UNL1       -0.0652
     18 C         140.6142  141.9799  170.8054 C.3     1  UNL1        0.3129
     19 C         140.8484  140.5821  171.2966 C.3     1  UNL1        0.2574
     20 N         140.3722  139.6327  170.2374 N.pl3   1  UNL1       -0.2190
     21 H         140.4014  138.6498  170.2858 H       1  UNL1        0.2920
@<TRIPOS>BOND
     1     4     5   ar
     2     5     6   ar
     3     6     7   ar
     4     7     1    1
     5     1    10    1
     6    10    11   ar
     7    11    12   ar
     8    12    13   ar
     9    13    14   ar
    10    14    15   ar
    11     1     2    1
    12     2     3    1
    13     3    16    1
    14    16    17    2
    15    17    18    1
    16    18    19    1
    17    19    20    1
    18     7     8   ar
    19     8     9   ar
    20     9     4   ar
    21     3     1    1
    22    20    16    1
    23    15    10   ar
    24    20    21    1
@<TRIPOS>MOLECULE
*****
 21 24 0 0 0
SMALL
GASTEIGER

@<TRIPOS>ATOM
      1 C         141.2991  142.4113  166.4871 C.3     1  UNL1        0.0492
      2 C         142.7293  142.1733  166.8714 C.3     1  UNL1        0.0214
      3 C         142.3964  142.6889  165.5028 C.3     1  UNL1        0.1132
      4 C         137.7198  143.5521  164.0097 C.ar    1  UNL1       -0.0000
      5 C         138.2484  142.1492  163.9623 C.ar    1  UNL1       -0.0003
      6 C         139.4415  141.7689  164.7881 C.ar    1  UNL1       -0.0040
      7 C         140.1060  142.7915  165.6613 C.ar    1  UNL1       -0.0185
      8 C         139.5774  144.1945  165.7087 C.ar    1  UNL1       -0.0040
      9 C         138.3843  144.5747  164.8830 C.ar    1  UNL1       -0.0003
     10 C         140.6162  142.0016  167.7582 C.ar    1  UNL1       -0.0185
     11 C         140.5575  142.9513  168.9178 C.ar    1  UNL1       -0.0040
     12 C         139.8746  142.5416  170.1890 C.ar    1  UNL1       -0.0003
     13 C         139.2504  141.1822  170.3005 C.ar    1  UNL1       -0.0000
     14 C         139.3091  140.2325  169.1409 C.ar    1  UNL1       -0.0003
     15 C         139.9920  140.6422  167.8698 C.ar    1  UNL1       -0.0040
     16 C         142.8376  143.1469  164.1441 C.2     1  UNL1        0.2920
     17 N         144.2567  143.2890  163.6795 N.2     1  UNL1       -0.0652
     18 C         144.2333  143.7730  162.2600 C.3     1  UNL1        0.3129
     19 C         142.7998  143.9301  161.8473 C.3     1  UNL1        0.2574
     20 N         141.9372  143.5431  163.0118 N.pl3   1  UNL1       -0.2190
     21 H         140.9528  143.5482  163.0297 H       1  UNL1        0.2920
@<TRIPOS>BOND
     1     4     5   ar
     2     5     6   ar
     3     6     7   ar
     4     7     1    1
     5     1    10    1
     6    10    11   ar
     7    11    12   ar
     8    12    13   ar
     9    13    14   ar
    10    14    15   ar
    11     1     2    1
    12     2     3    1
    13     3    16    1
    14    16    17    2
    15    17    18    1
    16    18    19    1
    17    19    20    1
    18     7     8   ar
    19     8     9   ar
    20     9     4   ar
    21     3     1    1
    22    20    16    1
    23    15    10   ar
    24    20    21    1
@<TRIPOS>MOLECULE
*****
 21 24 0 0 0
SMALL
GASTEIGER

@<TRIPOS>ATOM
      1 C         142.6154  141.3803  166.4111 C.3     1  UNL1        0.0492
      2 C         142.6387  139.9533  166.8726 C.3     1  UNL1        0.0214
      3 C         142.9683  140.2861  165.4477 C.3     1  UNL1        0.1132
      4 C         142.9542  144.9522  163.6951 C.ar    1  UNL1       -0.0000
      5 C         144.1243  144.5360  164.5363 C.ar    1  UNL1       -0.0003
      6 C         144.0114  143.3453  165.4416 C.ar    1  UNL1       -0.0040
      7 C         142.7284  142.5709  165.5058 C.ar    1  UNL1       -0.0185
      8 C         141.5583  142.9872  164.6646 C.ar    1  UNL1       -0.0040
      9 C         141.6712  144.1778  163.7593 C.ar    1  UNL1       -0.0003
     10 C         142.2233  142.0609  167.6890 C.ar    1  UNL1       -0.0185
     11 C         140.8266  142.5787  167.8649 C.ar    1  UNL1       -0.0040
     12 C         140.4345  143.2594  169.1429 C.ar    1  UNL1       -0.0003
     13 C         141.4392  143.4222  170.2447 C.ar    1  UNL1       -0.0000
     14 C         142.8359  142.9045  170.0687 C.ar    1  UNL1       -0.0003
     15 C         143.2280  142.2238  168.7909 C.ar    1  UNL1       -0.0040
     16 C         143.3624  139.8465  164.0686 C.2     1  UNL1        0.2920
     17 N         144.0974  140.6738  163.0561 N.2     1  UNL1       -0.0652
     18 C         144.2799  139.8412  161.8218 C.3     1  UNL1        0.3129
     19 C         143.6577  138.4994  162.0716 C.3     1  UNL1        0.2574
     20 N         143.0906  138.5027  163.4603 N.pl3   1  UNL1       -0.2190
     21 H         142.6223  137.7542  163.8959 H       1  UNL1        0.2920
@<TRIPOS>BOND
     1     4     5   ar
     2     5     6   ar
     3     6     7   ar
     4     7     1    1
     5     1    10    1
     6    10    11   ar
     7    11    12   ar
     8    12    13   ar
     9    13    14   ar
    10    14    15   ar
    11     1     2    1
    12     2     3    1
    13     3    16    1
    14    16    17    2
    15    17    18    1
    16    18    19    1
    17    19    20    1
    18     7     8   ar
    19     8     9   ar
    20     9     4   ar
    21     3     1    1
    22    20    16    1
    23    15    10   ar
    24    20    21    1
@<TRIPOS>MOLECULE
*****
 21 24 0 0 0
SMALL
GASTEIGER

@<TRIPOS>ATOM
      1 C         141.7497  142.3532  166.4714 C.3     1  UNL1        0.0492
      2 C         140.4044  142.8811  166.8731 C.3     1  UNL1        0.0214
      3 C         140.9354  143.1512  165.4966 C.3     1  UNL1        0.1132
      4 C         145.3745  141.4976  163.9458 C.ar    1  UNL1       -0.0000
      5 C         144.3367  140.4346  164.1527 C.ar    1  UNL1       -0.0003
      6 C         143.1284  140.7198  164.9945 C.ar    1  UNL1       -0.0040
      7 C         142.9580  142.0680  165.6295 C.ar    1  UNL1       -0.0185
      8 C         143.9958  143.1310  165.4226 C.ar    1  UNL1       -0.0040
      9 C         145.2041  142.8458  164.5807 C.ar    1  UNL1       -0.0003
     10 C         142.1443  141.6543  167.7386 C.ar    1  UNL1       -0.0185
     11 C         143.1120  142.3034  168.6830 C.ar    1  UNL1       -0.0040
     12 C         143.5066  141.6044  169.9503 C.ar    1  UNL1       -0.0003
     13 C         142.9333  140.2563  170.2729 C.ar    1  UNL1       -0.0000
     14 C         141.9655  139.6073  169.3285 C.ar    1  UNL1       -0.0003
     15 C         141.5710  140.3062  168.0613 C.ar    1  UNL1       -0.0040
     16 C         140.7720  143.7678  164.1389 C.2     1  UNL1        0.2920
     17 N         140.6471  143.0243  162.8422 N.2     1  UNL1       -0.0652
     18 C         140.5027  144.0331  161.7416 C.3     1  UNL1        0.3129
     19 C         140.5384  145.4001  162.3580 C.3     1  UNL1        0.2574
     20 N         140.7048  145.2361  163.8398 N.pl3   1  UNL1       -0.2190
     21 H         140.7602  145.9644  164.5000 H       1  UNL1        0.2920
@<TRIPOS>BOND
     1     4     5   ar
     2     5     6   ar
     3     6     7   ar
     4     7     1    1
     5     1    10    1
     6    10    11   ar
     7    11    12   ar
     8    12    13   ar
     9    13    14   ar
    10    14    15   ar
    11     1     2    1
    12     2     3    1
    13     3    16    1
    14    16    17    2
    15    17    18    1
    16    18    19    1
    17    19    20    1
    18     7     8   ar
    19     8     9   ar
    20     9     4   ar
    21     3     1    1
    22    20    16    1
    23    15    10   ar
    24    20    21    1
@<TRIPOS>MOLECULE
*****
 21 24 0 0 0
SMALL
GASTEIGER

@<TRIPOS>ATOM
      1 C         140.3194  141.4373  166.7657 C.3     1  UNL1        0.0492
      2 C         140.3814  142.9289  166.9113 C.3     1  UNL1        0.0214
      3 C         139.7599  142.3198  165.6896 C.3     1  UNL1        0.1132
      4 C         139.4449  137.3942  164.9940 C.ar    1  UNL1       -0.0000
      5 C         138.3749  138.1325  165.7423 C.ar    1  UNL1       -0.0003
      6 C         138.6664  139.4802  166.3328 C.ar    1  UNL1       -0.0040
      7 C         140.0279  140.0896  166.1751 C.ar    1  UNL1       -0.0185
      8 C         141.0979  139.3513  165.4269 C.ar    1  UNL1       -0.0040
      9 C         140.8065  138.0036  164.8364 C.ar    1  UNL1       -0.0003
     10 C         140.9802  141.0229  168.0470 C.ar    1  UNL1       -0.0185
     11 C         142.4227  141.3555  168.2886 C.ar    1  UNL1       -0.0040
     12 C         143.0835  140.9411  169.5700 C.ar    1  UNL1       -0.0003
     13 C         142.3016  140.1940  170.6095 C.ar    1  UNL1       -0.0000
     14 C         140.8591  139.8614  170.3678 C.ar    1  UNL1       -0.0003
     15 C         140.1984  140.2758  169.0865 C.ar    1  UNL1       -0.0040
     16 C         139.0779  142.4776  164.3628 C.2     1  UNL1        0.2920
     17 N         138.2784  143.6663  163.9184 N.2     1  UNL1       -0.0652
     18 C         137.7821  143.3978  162.5286 C.3     1  UNL1        0.3129
     19 C         138.2750  142.0431  162.1140 C.3     1  UNL1        0.2574
     20 N         139.0759  141.4744  163.2477 N.pl3   1  UNL1       -0.2190
     21 H         139.5219  140.5968  163.2580 H       1  UNL1        0.2920
@<TRIPOS>BOND
     1     4     5   ar
     2     5     6   ar
     3     6     7   ar
     4     7     1    1
     5     1    10    1
     6    10    11   ar
     7    11    12   ar
     8    12    13   ar
     9    13    14   ar
    10    14    15   ar
    11     1     2    1
    12     2     3    1
    13     3    16    1
    14    16    17    2
    15    17    18    1
    16    18    19    1
    17    19    20    1
    18     7     8   ar
    19     8     9   ar
    20     9     4   ar
    21     3     1    1
    22    20    16    1
    23    15    10   ar
    24    20    21    1
@<TRIPOS>MOLECULE
*****
 21 24 0 0 0
SMALL
GASTEIGER

@<TRIPOS>ATOM
      1 C         140.8626  141.3794  166.0685 C.3     1  UNL1        0.0492
      2 C         142.0036  140.4199  166.2337 C.3     1  UNL1        0.0214
      3 C         141.6482  140.9348  164.8705 C.3     1  UNL1        0.1132
      4 C         137.9008  144.1262  164.0854 C.ar    1  UNL1       -0.0000
      5 C         139.2212  144.6606  164.5552 C.ar    1  UNL1       -0.0003
      6 C         140.2085  143.7450  165.2163 C.ar    1  UNL1       -0.0040
      7 C         139.8753  142.2950  165.4074 C.ar    1  UNL1       -0.0185
      8 C         138.5549  141.7607  164.9376 C.ar    1  UNL1       -0.0040
      9 C         137.5676  142.6763  164.2766 C.ar    1  UNL1       -0.0003
     10 C         140.4200  141.5061  167.4961 C.ar    1  UNL1       -0.0185
     11 C         140.6882  142.7717  168.2550 C.ar    1  UNL1       -0.0040
     12 C         140.2456  142.8984  169.6827 C.ar    1  UNL1       -0.0003
     13 C         139.5347  141.7592  170.3512 C.ar    1  UNL1       -0.0000
     14 C         139.2664  140.4936  169.5923 C.ar    1  UNL1       -0.0003
     15 C         139.7091  140.3669  168.1647 C.ar    1  UNL1       -0.0040
     16 C         141.8964  140.9754  163.3917 C.2     1  UNL1        0.2920
     17 N         142.2699  142.1892  162.5934 N.2     1  UNL1       -0.0652
     18 C         142.4191  141.7733  161.1600 C.3     1  UNL1        0.3129
     19 C         142.1379  140.3026  161.0723 C.3     1  UNL1        0.2574
     20 N         141.8148  139.8094  162.4516 N.pl3   1  UNL1       -0.2190
     21 H         141.5889  138.8831  162.6968 H       1  UNL1        0.2920
@<TRIPOS>BOND
     1     4     5   ar
     2     5     6   ar
     3     6     7   ar
     4     7     1    1
     5     1    10    1
     6    10    11   ar
     7    11    12   ar
     8    12    13   ar
     9    13    14   ar
    10    14    15   ar
    11     1     2    1
    12     2     3    1
    13     3    16    1
    14    16    17    2
    15    17    18    1
    16    18    19    1
    17    19    20    1
    18     7     8   ar
    19     8     9   ar
    20     9     4   ar
    21     3     1    1
    22    20    16    1
    23    15    10   ar
    24    20    21    1
@<TRIPOS>MOLECULE
*****
 21 24 0 0 0
SMALL
GASTEIGER

@<TRIPOS>ATOM
      1 C         141.0462  140.0992  166.6676 C.3     1  UNL1        0.0492
      2 C         139.7111  139.9183  167.3268 C.3     1  UNL1        0.0214
      3 C         139.8725  139.6202  165.8657 C.3     1  UNL1        0.1132
      4 C         144.2106  140.1487  163.4685 C.ar    1  UNL1       -0.0000
      5 C         143.1683  141.2266  163.5092 C.ar    1  UNL1       -0.0003
      6 C         142.1135  141.2101  164.5756 C.ar    1  UNL1       -0.0040
      7 C         142.1010  140.1157  165.6012 C.ar    1  UNL1       -0.0185
      8 C         143.1433  139.0378  165.5605 C.ar    1  UNL1       -0.0040
      9 C         144.1981  139.0543  164.4942 C.ar    1  UNL1       -0.0003
     10 C         141.8535  140.5724  167.8399 C.ar    1  UNL1       -0.0185
     11 C         142.0311  139.6844  169.0356 C.ar    1  UNL1       -0.0040
     12 C         142.8385  140.1576  170.2080 C.ar    1  UNL1       -0.0003
     13 C         143.4681  141.5189  170.1845 C.ar    1  UNL1       -0.0000
     14 C         143.2905  142.4068  168.9887 C.ar    1  UNL1       -0.0003
     15 C         142.4832  141.9336  167.8164 C.ar    1  UNL1       -0.0040
     16 C         139.2882  139.1716  164.5589 C.2     1  UNL1        0.2920
     17 N         139.4139  137.8017  163.9610 N.2     1  UNL1       -0.0652
     18 C         138.6790  137.7976  162.6534 C.3     1  UNL1        0.3129
     19 C         138.0991  139.1648  162.4432 C.3     1  UNL1        0.2574
     20 N         138.4756  140.0141  163.6209 N.pl3   1  UNL1       -0.2190
     21 H         138.2321  140.9586  163.7548 H       1  UNL1        0.2920
@<TRIPOS>BOND
     1     4     5   ar
     2     5     6   ar
     3     6     7   ar
     4     7     1    1
     5     1    10    1
     6    10    11   ar
     7    11    12   ar
     8    12    13   ar
     9    13    14   ar
    10    14    15   ar
    11     1     2    1
    12     2     3    1
    13     3    16    1
    14    16    17    2
    15    17    18    1
    16    18    19    1
    17    19    20    1
    18     7     8   ar
    19     8     9   ar
    20     9     4   ar
    21     3     1    1
    22    20    16    1
    23    15    10   ar
    24    20    21    1
@<TRIPOS>MOLECULE
*****
 21 24 0 0 0
SMALL
GASTEIGER

@<TRIPOS>ATOM
      1 C         140.1771  139.6784  166.1300 C.3     1  UNL1        0.0492
      2 C         139.0227  139.6285  167.0864 C.3     1  UNL1        0.0214
      3 C         140.3974  139.9593  167.5869 C.3     1  UNL1        0.1132
      4 C         144.3767  140.1815  164.5935 C.ar    1  UNL1       -0.0000
      5 C         143.4008  141.3162  164.4943 C.ar    1  UNL1       -0.0003
      6 C         142.0009  141.1485  165.0065 C.ar    1  UNL1       -0.0040
      7 C         141.5770  139.8461  165.6179 C.ar    1  UNL1       -0.0185
      8 C         142.5529  138.7114  165.7171 C.ar    1  UNL1       -0.0040
      9 C         143.9527  138.8791  165.2049 C.ar    1  UNL1       -0.0003
     10 C         139.4707  139.3392  164.8510 C.ar    1  UNL1       -0.0185
     11 C         138.6440  140.3778  164.1526 C.ar    1  UNL1       -0.0040
     12 C         137.9375  140.0386  162.8735 C.ar    1  UNL1       -0.0003
     13 C         138.0578  138.6608  162.2930 C.ar    1  UNL1       -0.0000
     14 C         138.8844  137.6221  162.9914 C.ar    1  UNL1       -0.0003
     15 C         139.5909  137.9613  164.2705 C.ar    1  UNL1       -0.0040
     16 C         141.3184  140.3126  168.7171 C.2     1  UNL1        0.2920
     17 N         141.7262  141.6981  169.1218 N.2     1  UNL1       -0.0652
     18 C         142.6531  141.5841  170.2957 C.3     1  UNL1        0.3129
     19 C         142.8180  140.1282  170.6164 C.3     1  UNL1        0.2574
     20 N         141.9931  139.3422  169.6408 N.pl3   1  UNL1       -0.2190
     21 H         141.9092  138.3617  169.6118 H       1  UNL1        0.2920
@<TRIPOS>BOND
     1     4     5   ar
     2     5     6   ar
     3     6     7   ar
     4     7     1    1
     5     1    10    1
     6    10    11   ar
     7    11    12   ar
     8    12    13   ar
     9    13    14   ar
    10    14    15   ar
    11     1     2    1
    12     2     3    1
    13     3    16    1
    14    16    17    2
    15    17    18    1
    16    18    19    1
    17    19    20    1
    18     7     8   ar
    19     8     9   ar
    20     9     4   ar
    21     3     1    1
    22    20    16    1
    23    15    10   ar
    24    20    21    1
