@<TRIPOS>MOLECULE
*****
 35 40 0 0 0
SMALL
GASTEIGER

@<TRIPOS>ATOM
      1 C         138.3121  140.1594  164.8988 C.ar    1  UNL1       -0.0225
      2 C         138.1288  141.6438  164.7860 C.ar    1  UNL1       -0.0045
      3 C         138.1405  142.3006  163.4375 C.ar    1  UNL1       -0.0027
      4 C         138.3356  141.4729  162.2018 C.ar    1  UNL1        0.0019
      5 C         138.5189  139.9884  162.3146 C.ar    1  UNL1       -0.0201
      6 C         138.5071  139.3317  163.6631 C.ar    1  UNL1       -0.0085
      7 C         138.6890  139.4359  160.9305 C.3     1  UNL1        0.0519
      8 C         138.6109  140.5788  159.9623 C.2     1  UNL1        0.0074
      9 C         138.6678  140.9437  158.5084 C.2     1  UNL1        0.0976
     10 N         138.4845  142.4281  158.3956 N.2     1  UNL1       -0.1526
     11 N         138.3143  142.9807  159.7797 N.2     1  UNL1       -0.1678
     12 C         138.3924  141.8378  160.7479 C.3     1  UNL1        0.1672
     13 C         138.8721  139.9913  157.3677 C.ar    1  UNL1        0.0265
     14 C         138.3030  140.1341  155.9872 C.ar    1  UNL1        0.0376
     15 S         138.7606  138.9599  155.1735 S.2     1  UNL1       -0.0780
     16 C         139.6125  138.0915  156.0512 C.ar    1  UNL1        0.0711
     17 C         139.6814  138.7289  157.4072 C.ar    1  UNL1        0.0168
     18 C         140.2784  136.8106  155.6442 C.1     1  UNL1       -0.0543
     19 C         140.9444  135.5296  155.2372 C.1     1  UNL1       -0.0388
     20 C         141.6104  134.2487  154.8303 C.3     1  UNL1        0.2814
     21 O         141.4710  133.0256  155.6874 O.3     1  UNL1       -0.4612
     22 C         142.6536  132.5047  156.4491 C.ar    1  UNL1        0.1400
     23 C         143.5804  133.4602  157.1405 C.ar    1  UNL1        0.0369
     24 C         144.7629  132.9394  157.9022 C.ar    1  UNL1        0.0031
     25 C         145.0187  131.4631  157.9725 C.ar    1  UNL1        0.0002
     26 C         144.0919  130.5076  157.2811 C.ar    1  UNL1        0.0031
     27 C         142.9094  131.0284  156.5194 C.ar    1  UNL1        0.0369
     28 C         138.3004  139.5025  166.2473 C.3     1  UNL1        0.0264
     29 C         142.8455  140.3985  170.0603 C.3     1  UNL1        0.0896
     30 N         141.7092  140.1745  169.1071 N.3     1  UNL1       -0.2715
     31 C         141.9866  139.9349  167.6526 C.3     1  UNL1        0.0721
     32 C         140.8503  139.7109  166.6993 C.3     1  UNL1        0.0177
     33 C         139.4366  139.7265  167.2006 C.3     1  UNL1        0.0071
     34 C         139.1593  139.9661  168.6552 C.3     1  UNL1        0.0177
     35 C         140.2955  140.1901  169.6084 C.3     1  UNL1        0.0721
@<TRIPOS>BOND
     1    29    30    1
     2    30    31    1
     3    31    32    1
     4    32    33    1
     5    33    28    1
     6    28     1    1
     7     1     2   ar
     8     2     3   ar
     9     3     4   ar
    10     4     5   ar
    11     5     6   ar
    12     5     7    1
    13     7     8    1
    14     8     9    2
    15     9    13    1
    16    13    14   ar
    17    14    15   ar
    18    15    16   ar
    19    16    18    1
    20    18    19    3
    21    19    20    1
    22    20    21    1
    23    21    22    1
    24    22    23   ar
    25    23    24   ar
    26    24    25   ar
    27    25    26   ar
    28    26    27   ar
    29    16    17   ar
    30     9    10    1
    31    10    11    2
    32    11    12    1
    33    33    34    1
    34    34    35    1
    35    35    30    1
    36     6     1   ar
    37    12     8    1
    38    12     4    1
    39    17    13   ar
    40    27    22   ar
@<TRIPOS>MOLECULE
*****
 35 40 0 0 0
SMALL
GASTEIGER

@<TRIPOS>ATOM
      1 C         142.4688  136.2070  155.7973 C.ar    1  UNL1       -0.0225
      2 C         141.5384  136.6314  154.6999 C.ar    1  UNL1       -0.0045
      3 C         140.4125  137.5775  154.9953 C.ar    1  UNL1       -0.0027
      4 C         140.2171  138.0993  156.3879 C.ar    1  UNL1        0.0019
      5 C         141.1475  137.6749  157.4853 C.ar    1  UNL1       -0.0201
      6 C         142.2733  136.7288  157.1900 C.ar    1  UNL1       -0.0085
      7 C         140.7094  138.3498  158.7512 C.3     1  UNL1        0.0519
      8 C         139.5083  139.1913  158.4362 C.2     1  UNL1        0.0074
      9 C         138.4952  140.1285  159.0240 C.2     1  UNL1        0.0976
     10 N         137.5648  140.5528  157.9266 N.2     1  UNL1       -0.1526
     11 N         138.0029  139.8779  156.6607 N.2     1  UNL1       -0.1678
     12 C         139.2039  139.0365  156.9756 C.3     1  UNL1        0.1672
     13 C         138.4249  140.5647  160.4575 C.ar    1  UNL1        0.0265
     14 C         138.4176  141.9821  160.9484 C.ar    1  UNL1        0.0376
     15 S         138.3378  141.9535  162.4460 S.2     1  UNL1       -0.0780
     16 C         138.2958  140.5184  162.8806 C.ar    1  UNL1        0.0711
     17 C         138.3496  139.6601  161.6517 C.ar    1  UNL1        0.0168
     18 C         138.2142  140.0278  164.2957 C.1     1  UNL1       -0.0543
     19 C         138.1326  139.5372  165.7109 C.1     1  UNL1       -0.0388
     20 C         138.0510  139.0466  167.1260 C.3     1  UNL1        0.2814
     21 O         139.2195  139.2236  168.0498 O.3     1  UNL1       -0.4612
     22 C         139.6222  140.5984  168.4948 C.ar    1  UNL1        0.1400
     23 C         140.2656  141.5428  167.5232 C.ar    1  UNL1        0.0369
     24 C         140.6682  142.9175  167.9682 C.ar    1  UNL1        0.0031
     25 C         140.4275  143.3477  169.3849 C.ar    1  UNL1        0.0002
     26 C         139.7841  142.4033  170.3565 C.ar    1  UNL1        0.0031
     27 C         139.3814  141.0286  169.9115 C.ar    1  UNL1        0.0369
     28 C         143.5947  135.2608  155.5020 C.3     1  UNL1        0.0264
     29 C         142.8264  129.3573  156.2485 C.3     1  UNL1        0.0896
     30 N         143.0185  130.8332  156.0619 N.3     1  UNL1       -0.2715
     31 C         141.9121  131.6666  155.4863 C.3     1  UNL1        0.0721
     32 C         142.1042  133.1425  155.2996 C.3     1  UNL1        0.0177
     33 C         143.4026  133.7850  155.6886 C.3     1  UNL1        0.0071
     34 C         144.5090  132.9515  156.2643 C.3     1  UNL1        0.0177
     35 C         144.3169  131.4756  156.4509 C.3     1  UNL1        0.0721
@<TRIPOS>BOND
     1    29    30    1
     2    30    31    1
     3    31    32    1
     4    32    33    1
     5    33    28    1
     6    28     1    1
     7     1     2   ar
     8     2     3   ar
     9     3     4   ar
    10     4     5   ar
    11     5     6   ar
    12     5     7    1
    13     7     8    1
    14     8     9    2
    15     9    13    1
    16    13    14   ar
    17    14    15   ar
    18    15    16   ar
    19    16    18    1
    20    18    19    3
    21    19    20    1
    22    20    21    1
    23    21    22    1
    24    22    23   ar
    25    23    24   ar
    26    24    25   ar
    27    25    26   ar
    28    26    27   ar
    29    16    17   ar
    30     9    10    1
    31    10    11    2
    32    11    12    1
    33    33    34    1
    34    34    35    1
    35    35    30    1
    36     6     1   ar
    37    12     8    1
    38    12     4    1
    39    17    13   ar
    40    27    22   ar
@<TRIPOS>MOLECULE
*****
 35 40 0 0 0
SMALL
GASTEIGER

@<TRIPOS>ATOM
      1 C         143.6521  139.1804  164.9928 C.ar    1  UNL1       -0.0225
      2 C         144.3372  140.4611  164.6182 C.ar    1  UNL1       -0.0045
      3 C         144.3946  140.8886  163.1816 C.ar    1  UNL1       -0.0027
      4 C         143.7669  140.0353  162.1195 C.ar    1  UNL1        0.0019
      5 C         143.0818  138.7546  162.4941 C.ar    1  UNL1       -0.0201
      6 C         143.0244  138.3272  163.9307 C.ar    1  UNL1       -0.0085
      7 C         142.5569  138.1252  161.2378 C.3     1  UNL1        0.0519
      8 C         142.9176  139.0168  160.0868 C.2     1  UNL1        0.0074
      9 C         142.8162  139.1788  158.5990 C.2     1  UNL1        0.0976
     10 N         143.5013  140.4595  158.2245 N.2     1  UNL1       -0.1526
     11 N         144.0262  141.0890  159.4807 N.2     1  UNL1       -0.1678
     12 C         143.6655  140.1974  160.6317 C.3     1  UNL1        0.1672
     13 C         142.1471  138.2272  157.6521 C.ar    1  UNL1        0.0265
     14 C         140.7361  138.3265  157.1525 C.ar    1  UNL1        0.0376
     15 S         140.4885  137.1699  156.2302 S.2     1  UNL1       -0.0780
     16 C         141.7463  136.3556  156.1597 C.ar    1  UNL1        0.0711
     17 C         142.7714  137.0091  157.0385 C.ar    1  UNL1        0.0168
     18 C         141.9443  135.1072  155.3522 C.1     1  UNL1       -0.0543
     19 C         142.1424  133.8586  154.5447 C.1     1  UNL1       -0.0388
     20 C         142.3404  132.6102  153.7372 C.3     1  UNL1        0.2814
     21 O         143.5333  131.7361  153.9880 O.3     1  UNL1       -0.4612
     22 C         143.8530  131.2854  155.3826 C.ar    1  UNL1        0.1400
     23 C         144.7996  132.0828  156.2299 C.ar    1  UNL1        0.0369
     24 C         145.1193  131.6322  157.6244 C.ar    1  UNL1        0.0031
     25 C         144.4924  130.3842  158.1716 C.ar    1  UNL1        0.0002
     26 C         143.5457  129.5868  157.3242 C.ar    1  UNL1        0.0031
     27 C         143.2260  130.0374  155.9297 C.ar    1  UNL1        0.0369
     28 C         143.5947  138.7528  166.4294 C.3     1  UNL1        0.0264
     29 C         139.1787  140.7346  169.9751 C.3     1  UNL1        0.0896
     30 N         140.2827  140.2392  169.0887 N.3     1  UNL1       -0.2715
     31 C         140.0994  140.2235  167.6000 C.3     1  UNL1        0.0721
     32 C         141.2034  139.7281  166.7136 C.3     1  UNL1        0.0177
     33 C         142.4907  139.2483  167.3158 C.3     1  UNL1        0.0071
     34 C         142.6740  139.2640  168.8046 C.3     1  UNL1        0.0177
     35 C         141.5700  139.7594  169.6909 C.3     1  UNL1        0.0721
@<TRIPOS>BOND
     1    29    30    1
     2    30    31    1
     3    31    32    1
     4    32    33    1
     5    33    28    1
     6    28     1    1
     7     1     2   ar
     8     2     3   ar
     9     3     4   ar
    10     4     5   ar
    11     5     6   ar
    12     5     7    1
    13     7     8    1
    14     8     9    2
    15     9    13    1
    16    13    14   ar
    17    14    15   ar
    18    15    16   ar
    19    16    18    1
    20    18    19    3
    21    19    20    1
    22    20    21    1
    23    21    22    1
    24    22    23   ar
    25    23    24   ar
    26    24    25   ar
    27    25    26   ar
    28    26    27   ar
    29    16    17   ar
    30     9    10    1
    31    10    11    2
    32    11    12    1
    33    33    34    1
    34    34    35    1
    35    35    30    1
    36     6     1   ar
    37    12     8    1
    38    12     4    1
    39    17    13   ar
    40    27    22   ar
@<TRIPOS>MOLECULE
*****
 35 40 0 0 0
SMALL
GASTEIGER

@<TRIPOS>ATOM
      1 C         139.9056  146.5335  155.7977 C.ar    1  UNL1       -0.0225
      2 C         141.0061  145.9134  154.9889 C.ar    1  UNL1       -0.0045
      3 C         142.0232  145.0351  155.6554 C.ar    1  UNL1       -0.0027
      4 C         141.9396  144.7770  157.1307 C.ar    1  UNL1        0.0019
      5 C         140.8391  145.3971  157.9395 C.ar    1  UNL1       -0.0201
      6 C         139.8220  146.2754  157.2730 C.ar    1  UNL1       -0.0085
      7 C         141.0116  144.9647  159.3654 C.3     1  UNL1        0.0519
      8 C         142.2188  144.0774  159.4379 C.2     1  UNL1        0.0074
      9 C         143.0715  143.2617  160.3640 C.2     1  UNL1        0.0976
     10 N         144.1720  142.6416  159.5552 N.2     1  UNL1       -0.1526
     11 N         143.9995  143.0740  158.1293 N.2     1  UNL1       -0.1678
     12 C         142.7924  143.9613  158.0568 C.3     1  UNL1        0.1672
     13 C         142.8606  143.0955  161.8398 C.ar    1  UNL1        0.0265
     14 C         142.4300  144.1686  162.7953 C.ar    1  UNL1        0.0376
     15 S         142.3465  143.5632  164.1652 S.2     1  UNL1       -0.0780
     16 C         142.7256  142.1160  164.0563 C.ar    1  UNL1        0.0711
     17 C         143.0433  141.8269  162.6191 C.ar    1  UNL1        0.0168
     18 C         142.7778  141.1308  165.1862 C.1     1  UNL1       -0.0543
     19 C         142.8300  140.1456  166.3161 C.1     1  UNL1       -0.0388
     20 C         142.8822  139.1604  167.4460 C.3     1  UNL1        0.2814
     21 O         142.9277  139.6473  168.8641 O.3     1  UNL1       -0.4612
     22 C         142.0061  140.7433  169.3107 C.ar    1  UNL1        0.1400
     23 C         140.5627  140.4433  169.5874 C.ar    1  UNL1        0.0369
     24 C         139.6411  141.5392  170.0340 C.ar    1  UNL1        0.0031
     25 C         140.1629  142.9352  170.2039 C.ar    1  UNL1        0.0002
     26 C         141.6063  143.2352  169.9272 C.ar    1  UNL1        0.0031
     27 C         142.5279  142.1393  169.4806 C.ar    1  UNL1        0.0369
     28 C         138.8885  147.4118  155.1312 C.3     1  UNL1        0.0264
     29 C         140.2385  153.1112  153.8298 C.3     1  UNL1        0.0896
     30 N         139.9010  151.6864  154.1551 N.3     1  UNL1       -0.2715
     31 C         140.3860  150.5792  153.2670 C.3     1  UNL1        0.0721
     32 C         140.0485  149.1543  153.5924 C.3     1  UNL1        0.0177
     33 C         139.2260  148.8366  154.8058 C.3     1  UNL1        0.0071
     34 C         138.7409  149.9439  155.6940 C.3     1  UNL1        0.0177
     35 C         139.0784  151.3688  155.3686 C.3     1  UNL1        0.0721
@<TRIPOS>BOND
     1    29    30    1
     2    30    31    1
     3    31    32    1
     4    32    33    1
     5    33    28    1
     6    28     1    1
     7     1     2   ar
     8     2     3   ar
     9     3     4   ar
    10     4     5   ar
    11     5     6   ar
    12     5     7    1
    13     7     8    1
    14     8     9    2
    15     9    13    1
    16    13    14   ar
    17    14    15   ar
    18    15    16   ar
    19    16    18    1
    20    18    19    3
    21    19    20    1
    22    20    21    1
    23    21    22    1
    24    22    23   ar
    25    23    24   ar
    26    24    25   ar
    27    25    26   ar
    28    26    27   ar
    29    16    17   ar
    30     9    10    1
    31    10    11    2
    32    11    12    1
    33    33    34    1
    34    34    35    1
    35    35    30    1
    36     6     1   ar
    37    12     8    1
    38    12     4    1
    39    17    13   ar
    40    27    22   ar
@<TRIPOS>MOLECULE
*****
 35 40 0 0 0
SMALL
GASTEIGER

@<TRIPOS>ATOM
      1 C         135.9722  141.0079  155.4544 C.ar    1  UNL1       -0.0225
      2 C         136.1765  142.1233  154.4725 C.ar    1  UNL1       -0.0045
      3 C         137.1227  143.2419  154.7944 C.ar    1  UNL1       -0.0027
      4 C         137.8645  143.2450  156.0981 C.ar    1  UNL1        0.0019
      5 C         137.6601  142.1297  157.0800 C.ar    1  UNL1       -0.0201
      6 C         136.7140  141.0111  156.7581 C.ar    1  UNL1       -0.0085
      7 C         138.5238  142.4010  158.2760 C.3     1  UNL1        0.0519
      8 C         139.2620  143.6840  158.0333 C.2     1  UNL1        0.0074
      9 C         140.2520  144.6447  158.6225 C.2     1  UNL1        0.0976
     10 N         140.4563  145.7600  157.6406 N.2     1  UNL1       -0.1526
     11 N         139.5926  145.4887  156.4446 N.2     1  UNL1       -0.1678
     12 C         138.8545  144.2057  156.6873 C.3     1  UNL1        0.1672
     13 C         140.9203  144.5130  159.9589 C.ar    1  UNL1        0.0265
     14 C         140.5773  145.2883  161.1964 C.ar    1  UNL1        0.0376
     15 S         141.4939  144.8374  162.2948 S.2     1  UNL1       -0.0780
     16 C         142.4034  143.7834  161.7361 C.ar    1  UNL1        0.0711
     17 C         142.0488  143.5829  160.2925 C.ar    1  UNL1        0.0168
     18 C         143.4786  143.0573  162.4890 C.1     1  UNL1       -0.0543
     19 C         144.5539  142.3313  163.2418 C.1     1  UNL1       -0.0388
     20 C         145.6290  141.6052  163.9946 C.3     1  UNL1        0.2814
     21 O         145.6078  140.1075  164.0748 O.3     1  UNL1       -0.4612
     22 C         144.3084  139.3682  163.9520 C.ar    1  UNL1        0.1400
     23 C         143.4498  139.1544  165.1633 C.ar    1  UNL1        0.0369
     24 C         142.1505  138.4151  165.0405 C.ar    1  UNL1        0.0031
     25 C         141.7097  137.8896  163.7065 C.ar    1  UNL1        0.0002
     26 C         142.5683  138.1034  162.4953 C.ar    1  UNL1        0.0031
     27 C         143.8677  138.8427  162.6180 C.ar    1  UNL1        0.0369
     28 C         135.0260  139.8893  155.1326 C.3     1  UNL1        0.0264
     29 C         129.5108  139.8517  157.4948 C.3     1  UNL1        0.0896
     30 N         130.8896  139.8611  156.9043 N.3     1  UNL1       -0.2715
     31 C         131.8488  138.7524  157.2213 C.3     1  UNL1        0.0721
     32 C         133.2277  138.7618  156.6307 C.3     1  UNL1        0.0177
     33 C         133.6473  139.8799  155.7231 C.3     1  UNL1        0.0071
     34 C         132.6879  140.9887  155.4061 C.3     1  UNL1        0.0177
     35 C         131.3092  140.9793  155.9967 C.3     1  UNL1        0.0721
@<TRIPOS>BOND
     1    29    30    1
     2    30    31    1
     3    31    32    1
     4    32    33    1
     5    33    28    1
     6    28     1    1
     7     1     2   ar
     8     2     3   ar
     9     3     4   ar
    10     4     5   ar
    11     5     6   ar
    12     5     7    1
    13     7     8    1
    14     8     9    2
    15     9    13    1
    16    13    14   ar
    17    14    15   ar
    18    15    16   ar
    19    16    18    1
    20    18    19    3
    21    19    20    1
    22    20    21    1
    23    21    22    1
    24    22    23   ar
    25    23    24   ar
    26    24    25   ar
    27    25    26   ar
    28    26    27   ar
    29    16    17   ar
    30     9    10    1
    31    10    11    2
    32    11    12    1
    33    33    34    1
    34    34    35    1
    35    35    30    1
    36     6     1   ar
    37    12     8    1
    38    12     4    1
    39    17    13   ar
    40    27    22   ar
@<TRIPOS>MOLECULE
*****
 35 40 0 0 0
SMALL
GASTEIGER

@<TRIPOS>ATOM
      1 C         136.5051  141.0010  155.4267 C.ar    1  UNL1       -0.0225
      2 C         137.1238  141.9350  154.4293 C.ar    1  UNL1       -0.0045
      3 C         138.1097  142.9705  154.8828 C.ar    1  UNL1       -0.0027
      4 C         138.4770  143.0720  156.3336 C.ar    1  UNL1        0.0019
      5 C         137.8583  142.1379  157.3309 C.ar    1  UNL1       -0.0201
      6 C         136.8724  141.1024  156.8775 C.ar    1  UNL1       -0.0085
      7 C         138.4102  142.4736  158.6847 C.3     1  UNL1        0.0519
      8 C         139.3700  143.6151  158.5240 C.2     1  UNL1        0.0074
      9 C         140.3042  144.5280  159.2615 C.2     1  UNL1        0.0976
     10 N         140.9228  145.4621  158.2641 N.2     1  UNL1       -0.1526
     11 N         140.3710  145.1264  156.9103 N.2     1  UNL1       -0.1678
     12 C         139.4113  143.9850  157.0710 C.3     1  UNL1        0.1672
     13 C         140.5726  144.5100  160.7372 C.ar    1  UNL1        0.0265
     14 C         140.2752  145.6203  161.7010 C.ar    1  UNL1        0.0376
     15 S         140.7044  145.1751  163.0676 S.2     1  UNL1       -0.0780
     16 C         141.2670  143.7897  162.9484 C.ar    1  UNL1        0.0711
     17 C         141.1855  143.3787  161.5081 C.ar    1  UNL1        0.0168
     18 C         141.8148  142.9608  164.0721 C.1     1  UNL1       -0.0543
     19 C         142.3627  142.1319  165.1959 C.1     1  UNL1       -0.0388
     20 C         142.9106  141.3030  166.3196 C.3     1  UNL1        0.2814
     21 O         141.9928  140.4335  167.1268 O.3     1  UNL1       -0.4612
     22 C         140.9361  139.6188  166.4414 C.ar    1  UNL1        0.1400
     23 C         141.3276  138.5707  165.4422 C.ar    1  UNL1        0.0369
     24 C         140.2710  137.7560  164.7568 C.ar    1  UNL1        0.0031
     25 C         138.8229  137.9893  165.0706 C.ar    1  UNL1        0.0002
     26 C         138.4314  139.0374  166.0697 C.ar    1  UNL1        0.0031
     27 C         139.4880  139.8521  166.7551 C.ar    1  UNL1        0.0369
     28 C         135.5192  139.9654  154.9732 C.3     1  UNL1        0.0264
     29 C         129.8440  140.1755  156.9093 C.3     1  UNL1        0.0896
     30 N         131.2628  140.1230  156.4253 N.3     1  UNL1       -0.2715
     31 C         132.1224  138.9373  156.7494 C.3     1  UNL1        0.0721
     32 C         133.5412  138.8847  156.2654 C.3     1  UNL1        0.0177
     33 C         134.1004  140.0179  155.4572 C.3     1  UNL1        0.0071
     34 C         133.2407  141.2037  155.1331 C.3     1  UNL1        0.0177
     35 C         131.8220  141.2562  155.6171 C.3     1  UNL1        0.0721
@<TRIPOS>BOND
     1    29    30    1
     2    30    31    1
     3    31    32    1
     4    32    33    1
     5    33    28    1
     6    28     1    1
     7     1     2   ar
     8     2     3   ar
     9     3     4   ar
    10     4     5   ar
    11     5     6   ar
    12     5     7    1
    13     7     8    1
    14     8     9    2
    15     9    13    1
    16    13    14   ar
    17    14    15   ar
    18    15    16   ar
    19    16    18    1
    20    18    19    3
    21    19    20    1
    22    20    21    1
    23    21    22    1
    24    22    23   ar
    25    23    24   ar
    26    24    25   ar
    27    25    26   ar
    28    26    27   ar
    29    16    17   ar
    30     9    10    1
    31    10    11    2
    32    11    12    1
    33    33    34    1
    34    34    35    1
    35    35    30    1
    36     6     1   ar
    37    12     8    1
    38    12     4    1
    39    17    13   ar
    40    27    22   ar
@<TRIPOS>MOLECULE
*****
 35 40 0 0 0
SMALL
GASTEIGER

@<TRIPOS>ATOM
      1 C         140.3530  142.9651  164.6796 C.ar    1  UNL1       -0.0225
      2 C         140.2542  144.4153  164.3096 C.ar    1  UNL1       -0.0045
      3 C         140.7256  144.8796  162.9635 C.ar    1  UNL1       -0.0027
      4 C         141.2959  143.8937  161.9874 C.ar    1  UNL1        0.0019
      5 C         141.3948  142.4435  162.3575 C.ar    1  UNL1       -0.0201
      6 C         140.9233  141.9791  163.7036 C.ar    1  UNL1       -0.0085
      7 C         141.9974  141.7089  161.1967 C.3     1  UNL1        0.0519
      8 C         142.2709  142.7052  160.1092 C.2     1  UNL1        0.0074
      9 C         142.8124  142.8670  158.7198 C.2     1  UNL1        0.0976
     10 N         142.7136  144.3172  158.3497 N.2     1  UNL1       -0.1526
     11 N         142.1110  145.0517  159.5105 N.2     1  UNL1       -0.1678
     12 C         141.8374  144.0555  160.5979 C.3     1  UNL1        0.1672
     13 C         143.3571  141.7709  157.8526 C.ar    1  UNL1        0.0265
     14 C         144.6258  141.8265  157.0541 C.ar    1  UNL1        0.0376
     15 S         144.7815  140.5168  156.3397 S.2     1  UNL1       -0.0780
     16 C         143.6092  139.6517  156.6967 C.ar    1  UNL1        0.0711
     17 C         142.7289  140.4268  157.6317 C.ar    1  UNL1        0.0168
     18 C         143.3608  138.2566  156.2051 C.1     1  UNL1       -0.0543
     19 C         143.1124  136.8613  155.7134 C.1     1  UNL1       -0.0388
     20 C         142.8640  135.4662  155.2218 C.3     1  UNL1        0.2814
     21 O         142.2171  134.4572  156.1236 O.3     1  UNL1       -0.4612
     22 C         143.0181  133.3077  156.6596 C.ar    1  UNL1        0.1400
     23 C         144.2647  133.5674  157.4525 C.ar    1  UNL1        0.0369
     24 C         145.0657  132.4181  157.9884 C.ar    1  UNL1        0.0031
     25 C         144.6202  131.0090  157.7316 C.ar    1  UNL1        0.0002
     26 C         143.3736  130.7493  156.9387 C.ar    1  UNL1        0.0031
     27 C         142.5726  131.8987  156.4028 C.ar    1  UNL1        0.0369
     28 C         139.8815  142.5007  166.0258 C.3     1  UNL1        0.0264
     29 C         143.4381  143.0991  170.8208 C.3     1  UNL1        0.0896
     30 N         142.5490  142.9495  169.6221 N.3     1  UNL1       -0.2715
     31 C         143.0901  142.3529  168.3568 C.3     1  UNL1        0.0721
     32 C         142.2010  142.2033  167.1579 C.3     1  UNL1        0.0177
     33 C         140.7707  142.6503  167.2245 C.3     1  UNL1        0.0071
     34 C         140.2295  143.2469  168.4900 C.3     1  UNL1        0.0177
     35 C         141.1187  143.3965  169.6887 C.3     1  UNL1        0.0721
@<TRIPOS>BOND
     1    29    30    1
     2    30    31    1
     3    31    32    1
     4    32    33    1
     5    33    28    1
     6    28     1    1
     7     1     2   ar
     8     2     3   ar
     9     3     4   ar
    10     4     5   ar
    11     5     6   ar
    12     5     7    1
    13     7     8    1
    14     8     9    2
    15     9    13    1
    16    13    14   ar
    17    14    15   ar
    18    15    16   ar
    19    16    18    1
    20    18    19    3
    21    19    20    1
    22    20    21    1
    23    21    22    1
    24    22    23   ar
    25    23    24   ar
    26    24    25   ar
    27    25    26   ar
    28    26    27   ar
    29    16    17   ar
    30     9    10    1
    31    10    11    2
    32    11    12    1
    33    33    34    1
    34    34    35    1
    35    35    30    1
    36     6     1   ar
    37    12     8    1
    38    12     4    1
    39    17    13   ar
    40    27    22   ar
@<TRIPOS>MOLECULE
*****
 35 40 0 0 0
SMALL
GASTEIGER

@<TRIPOS>ATOM
      1 C         140.3121  138.8285  165.1335 C.ar    1  UNL1       -0.0225
      2 C         141.7963  138.6196  165.1909 C.ar    1  UNL1       -0.0045
      3 C         142.5766  138.4303  163.9239 C.ar    1  UNL1       -0.0027
      4 C         141.8726  138.4499  162.5995 C.ar    1  UNL1        0.0019
      5 C         140.3884  138.6588  162.5421 C.ar    1  UNL1       -0.0201
      6 C         139.6081  138.8481  163.8091 C.ar    1  UNL1       -0.0085
      7 C         139.9717  138.6301  161.1014 C.3     1  UNL1        0.0519
      8 C         141.1984  138.4035  160.2685 C.2     1  UNL1        0.0074
      9 C         141.6990  138.2458  158.8633 C.2     1  UNL1        0.0976
     10 N         143.1832  138.0369  158.9207 N.2     1  UNL1       -0.1526
     11 N         143.5999  138.0656  160.3614 N.2     1  UNL1       -0.1678
     12 C         142.3733  138.2921  161.1943 C.3     1  UNL1        0.1672
     13 C         140.8622  138.2893  157.6191 C.ar    1  UNL1        0.0265
     14 C         141.0533  137.4395  156.3979 C.ar    1  UNL1        0.0376
     15 S         139.9966  137.8152  155.4018 S.2     1  UNL1       -0.0780
     16 C         139.1525  138.8973  156.0074 C.ar    1  UNL1        0.0711
     17 C         139.6874  139.1902  157.3777 C.ar    1  UNL1        0.0168
     18 C         137.9793  139.5684  155.3568 C.1     1  UNL1       -0.0543
     19 C         136.8062  140.2397  154.7063 C.1     1  UNL1       -0.0388
     20 C         135.6330  140.9109  154.0557 C.3     1  UNL1        0.2814
     21 O         134.6715  141.7098  154.8846 O.3     1  UNL1       -0.4612
     22 C         133.5828  141.0155  155.6480 C.ar    1  UNL1        0.1400
     23 C         133.9295  139.9622  156.6582 C.ar    1  UNL1        0.0369
     24 C         132.8408  139.2679  157.4216 C.ar    1  UNL1        0.0031
     25 C         131.4055  139.6269  157.1748 C.ar    1  UNL1        0.0002
     26 C         131.0588  140.6802  156.1647 C.ar    1  UNL1        0.0031
     27 C         132.1474  141.3745  155.4013 C.ar    1  UNL1        0.0369
     28 C         139.5317  139.0178  166.4005 C.3     1  UNL1        0.0264
     29 C         140.5324  143.8237  169.8505 C.3     1  UNL1        0.0896
     30 N         140.2822  142.6222  168.9880 N.3     1  UNL1       -0.2715
     31 C         139.8780  141.3206  169.6142 C.3     1  UNL1        0.0721
     32 C         139.6278  140.1190  168.7517 C.3     1  UNL1        0.0177
     33 C         139.7819  140.2193  167.2630 C.3     1  UNL1        0.0071
     34 C         140.1862  141.5210  166.6368 C.3     1  UNL1        0.0177
     35 C         140.4364  142.7224  167.4993 C.3     1  UNL1        0.0721
@<TRIPOS>BOND
     1    29    30    1
     2    30    31    1
     3    31    32    1
     4    32    33    1
     5    33    28    1
     6    28     1    1
     7     1     2   ar
     8     2     3   ar
     9     3     4   ar
    10     4     5   ar
    11     5     6   ar
    12     5     7    1
    13     7     8    1
    14     8     9    2
    15     9    13    1
    16    13    14   ar
    17    14    15   ar
    18    15    16   ar
    19    16    18    1
    20    18    19    3
    21    19    20    1
    22    20    21    1
    23    21    22    1
    24    22    23   ar
    25    23    24   ar
    26    24    25   ar
    27    25    26   ar
    28    26    27   ar
    29    16    17   ar
    30     9    10    1
    31    10    11    2
    32    11    12    1
    33    33    34    1
    34    34    35    1
    35    35    30    1
    36     6     1   ar
    37    12     8    1
    38    12     4    1
    39    17    13   ar
    40    27    22   ar
@<TRIPOS>MOLECULE
*****
 35 40 0 0 0
SMALL
GASTEIGER

@<TRIPOS>ATOM
      1 C         139.9056  146.0760  155.2118 C.ar    1  UNL1       -0.0225
      2 C         138.8009  145.1201  154.8717 C.ar    1  UNL1       -0.0045
      3 C         138.4247  144.0348  155.8364 C.ar    1  UNL1       -0.0027
      4 C         139.1532  143.9055  157.1412 C.ar    1  UNL1        0.0019
      5 C         140.2579  144.8615  157.4813 C.ar    1  UNL1       -0.0201
      6 C         140.6341  145.9468  156.5166 C.ar    1  UNL1       -0.0085
      7 C         140.7927  144.4900  158.8326 C.3     1  UNL1        0.0519
      8 C         140.0186  143.3044  159.3276 C.2     1  UNL1        0.0074
      9 C         139.8707  142.3421  160.4687 C.2     1  UNL1        0.0976
     10 N         138.7660  141.3861  160.1286 N.2     1  UNL1       -0.1526
     11 N         138.2312  141.7576  158.7773 N.2     1  UNL1       -0.1678
     12 C         139.0053  142.9431  158.2823 C.3     1  UNL1        0.1672
     13 C         140.6846  142.3367  161.7287 C.ar    1  UNL1        0.0265
     14 C         141.5501  143.4573  162.2240 C.ar    1  UNL1        0.0376
     15 S         142.1763  143.0229  163.5160 S.2     1  UNL1       -0.0780
     16 C         141.6978  141.6340  163.8191 C.ar    1  UNL1        0.0711
     17 C         140.7759  141.2099  162.7145 C.ar    1  UNL1        0.0168
     18 C         142.0750  140.8132  165.0166 C.1     1  UNL1       -0.0543
     19 C         142.4522  139.9924  166.2142 C.1     1  UNL1       -0.0388
     20 C         142.8294  139.1716  167.4117 C.3     1  UNL1        0.2814
     21 O         143.0157  139.8324  168.7454 O.3     1  UNL1       -0.4612
     22 C         142.0167  140.8419  169.2283 C.ar    1  UNL1        0.1400
     23 C         142.4245  142.2743  169.4071 C.ar    1  UNL1        0.0369
     24 C         141.4257  143.2838  169.8900 C.ar    1  UNL1        0.0031
     25 C         140.0191  142.8610  170.1940 C.ar    1  UNL1        0.0002
     26 C         139.6112  141.4286  170.0151 C.ar    1  UNL1        0.0031
     27 C         140.6101  140.4191  169.5323 C.ar    1  UNL1        0.0369
     28 C         140.2818  147.1614  154.2471 C.3     1  UNL1        0.0264
     29 C         138.4228  152.7880  155.1874 C.3     1  UNL1        0.0896
     30 N         138.8876  151.3814  154.9523 N.3     1  UNL1       -0.2715
     31 C         138.3681  150.2666  155.8110 C.3     1  UNL1        0.0721
     32 C         138.8329  148.8598  155.5759 C.3     1  UNL1        0.0177
     33 C         139.8170  148.5680  154.4822 C.3     1  UNL1        0.0071
     34 C         140.3365  149.6829  153.6235 C.3     1  UNL1        0.0177
     35 C         139.8718  151.0896  153.8586 C.3     1  UNL1        0.0721
@<TRIPOS>BOND
     1    29    30    1
     2    30    31    1
     3    31    32    1
     4    32    33    1
     5    33    28    1
     6    28     1    1
     7     1     2   ar
     8     2     3   ar
     9     3     4   ar
    10     4     5   ar
    11     5     6   ar
    12     5     7    1
    13     7     8    1
    14     8     9    2
    15     9    13    1
    16    13    14   ar
    17    14    15   ar
    18    15    16   ar
    19    16    18    1
    20    18    19    3
    21    19    20    1
    22    20    21    1
    23    21    22    1
    24    22    23   ar
    25    23    24   ar
    26    24    25   ar
    27    25    26   ar
    28    26    27   ar
    29    16    17   ar
    30     9    10    1
    31    10    11    2
    32    11    12    1
    33    33    34    1
    34    34    35    1
    35    35    30    1
    36     6     1   ar
    37    12     8    1
    38    12     4    1
    39    17    13   ar
    40    27    22   ar
