@<TRIPOS>MOLECULE
*****
 33 37 0 0 0
SMALL
GASTEIGER

@<TRIPOS>ATOM
      1 N         143.9620  141.6837  158.5777 N.ar    1  UNL1       -0.2172
      2 C         145.1887  141.8677  157.7343 C.ar    1  UNL1        0.0586
      3 C         145.1589  140.8396  156.6424 C.ar    1  UNL1        0.0088
      4 C         143.9138  140.0202  156.8111 C.ar    1  UNL1        0.0161
      5 C         143.3581  138.8665  156.0300 C.ar    1  UNL1        0.0058
      6 C         142.0627  138.2344  156.4451 C.ar    1  UNL1        0.0537
      7 C         141.3230  138.7561  157.6412 C.ar    1  UNL1        0.0061
      8 C         141.8787  139.9098  158.4222 C.ar    1  UNL1        0.0191
      9 C         143.1741  140.5419  158.0072 C.ar    1  UNL1        0.0815
     10 C         146.2694  140.7824  155.6357 C.3     1  UNL1        0.1004
     11 N         147.4096  141.7533  155.7208 N.3     1  UNL1       -0.2675
     12 C         147.4394  142.7814  156.8126 C.3     1  UNL1        0.0787
     13 C         146.3289  142.8386  157.8194 C.3     1  UNL1        0.0627
     14 C         141.5070  137.0806  155.6641 C.2     1  UNL1        0.2490
     15 O         140.5163  137.3267  154.5650 O.2     1  UNL1       -0.2699
     16 N         141.9419  135.6807  155.9821 N.am    1  UNL1       -0.2761
     17 C         142.9327  135.4347  157.0813 C.3     1  UNL1        0.0937
     18 C         143.3677  134.0348  157.3993 C.3     1  UNL1        0.0216
     19 C         142.8119  132.8810  156.6183 C.3     1  UNL1        0.0034
     20 C         143.2469  131.4811  156.9364 C.3     1  UNL1        0.0001
     21 C         141.8212  133.1271  155.5193 C.3     1  UNL1        0.0216
     22 C         141.3862  134.5270  155.2012 C.3     1  UNL1        0.0937
     23 C         148.5201  141.6961  154.7140 C.3     1  UNL1        0.0900
     24 C         149.9853  141.6035  155.0217 C.3     1  UNL1        0.0506
     25 C         150.7310  141.5715  153.7206 C.3     1  UNL1        0.1437
     26 O         149.7268  141.6444  152.6088 O.3     1  UNL1       -0.3523
     27 C         148.3603  141.7214  153.2228 C.3     1  UNL1        0.1580
     28 S         143.5887  142.4984  159.7806 S.O2    1  UNL1        0.0660
     29 O         144.2937  141.5141  160.6661 O.2     1  UNL1       -0.1521
     30 O         142.8838  143.4827  158.8951 O.2     1  UNL1       -0.1521
     31 C         143.2155  143.3131  160.9835 C.3     1  UNL1        0.1751
     32 C         143.9806  144.6009  163.1062 C.3     1  UNL1        0.0019
     33 C         144.2144  143.5313  162.0810 C.3     1  UNL1        0.0276
@<TRIPOS>BOND
     1    32    33    1
     2    33    31    1
     3    31    28    1
     4    28    29    2
     5    28    30    2
     6    28     1    1
     7     1     2   ar
     8     2     3   ar
     9     3     4   ar
    10     4     5   ar
    11     5     6   ar
    12     6    14    1
    13    14    15    2
    14    14    16   am
    15    16    17    1
    16    17    18    1
    17    18    19    1
    18    19    20    1
    19    19    21    1
    20    21    22    1
    21     6     7   ar
    22     7     8   ar
    23     8     9   ar
    24     3    10    1
    25    10    11    1
    26    11    23    1
    27    23    24    1
    28    24    25    1
    29    25    26    1
    30    26    27    1
    31    11    12    1
    32    12    13    1
    33     9     1   ar
    34    27    23    1
    35    13     2    1
    36     9     4   ar
    37    22    16    1
@<TRIPOS>MOLECULE
*****
 33 37 0 0 0
SMALL
GASTEIGER

@<TRIPOS>ATOM
      1 N         140.5674  138.5855  156.1894 N.ar    1  UNL1       -0.2172
      2 C         141.2197  137.2367  156.1189 C.ar    1  UNL1        0.0586
      3 C         142.3134  137.1965  157.1447 C.ar    1  UNL1        0.0088
      4 C         142.3370  138.5206  157.8492 C.ar    1  UNL1        0.0161
      5 C         143.2017  139.0555  158.9520 C.ar    1  UNL1        0.0058
      6 C         142.9872  140.4488  159.4644 C.ar    1  UNL1        0.0537
      7 C         141.9081  141.3073  158.8740 C.ar    1  UNL1        0.0061
      8 C         141.0435  140.7724  157.7712 C.ar    1  UNL1        0.0191
      9 C         141.2579  139.3791  157.2588 C.ar    1  UNL1        0.0815
     10 C         143.1465  135.9595  157.3047 C.3     1  UNL1        0.1004
     11 N         142.8860  134.7626  156.4390 N.3     1  UNL1       -0.2675
     12 C         141.7923  134.8027  155.4132 C.3     1  UNL1        0.0787
     13 C         140.9592  136.0397  155.2531 C.3     1  UNL1        0.0627
     14 C         143.8519  140.9837  160.5673 C.2     1  UNL1        0.2490
     15 O         144.7556  142.1533  160.3115 O.2     1  UNL1       -0.2699
     16 N         143.8129  140.3491  161.9258 N.am    1  UNL1       -0.2761
     17 C         142.9091  139.1794  162.1815 C.3     1  UNL1        0.0937
     18 C         142.8701  138.5447  163.5400 C.3     1  UNL1        0.0216
     19 C         143.7348  139.0797  164.6429 C.3     1  UNL1        0.0034
     20 C         143.6957  138.4450  166.0014 C.3     1  UNL1        0.0001
     21 C         144.6385  140.2492  164.3872 C.3     1  UNL1        0.0216
     22 C         144.6775  140.8839  163.0286 C.3     1  UNL1        0.0937
     23 C         143.7191  133.5255  156.5991 C.3     1  UNL1        0.0900
     24 C         143.9312  132.4647  155.5599 C.3     1  UNL1        0.0506
     25 C         144.8296  131.4157  156.1451 C.3     1  UNL1        0.1437
     26 O         145.1728  131.8282  157.5458 O.3     1  UNL1       -0.3523
     27 C         144.4865  133.1321  157.8264 C.3     1  UNL1        0.1580
     28 S         139.4251  139.0580  155.3398 S.O2    1  UNL1        0.0660
     29 O         140.3821  139.3733  154.2285 O.2     1  UNL1       -0.1521
     30 O         138.4682  138.7427  156.4509 O.2     1  UNL1       -0.1521
     31 C         138.2828  139.5305  154.4900 C.3     1  UNL1        0.1751
     32 C         137.7842  137.2630  153.3239 C.3     1  UNL1        0.0019
     33 C         137.2984  138.5416  153.9394 C.3     1  UNL1        0.0276
@<TRIPOS>BOND
     1    32    33    1
     2    33    31    1
     3    31    28    1
     4    28    29    2
     5    28    30    2
     6    28     1    1
     7     1     2   ar
     8     2     3   ar
     9     3     4   ar
    10     4     5   ar
    11     5     6   ar
    12     6    14    1
    13    14    15    2
    14    14    16   am
    15    16    17    1
    16    17    18    1
    17    18    19    1
    18    19    20    1
    19    19    21    1
    20    21    22    1
    21     6     7   ar
    22     7     8   ar
    23     8     9   ar
    24     3    10    1
    25    10    11    1
    26    11    23    1
    27    23    24    1
    28    24    25    1
    29    25    26    1
    30    26    27    1
    31    11    12    1
    32    12    13    1
    33     9     1   ar
    34    27    23    1
    35    13     2    1
    36     9     4   ar
    37    22    16    1
@<TRIPOS>MOLECULE
*****
 33 37 0 0 0
SMALL
GASTEIGER

@<TRIPOS>ATOM
      1 N         142.0342  142.0240  162.0097 N.ar    1  UNL1       -0.2172
      2 C         141.2963  141.3404  163.1224 C.ar    1  UNL1        0.0586
      3 C         140.4645  140.2456  162.5229 C.ar    1  UNL1        0.0088
      4 C         140.6883  140.2526  161.0397 C.ar    1  UNL1        0.0161
      5 C         140.1340  139.4001  159.9370 C.ar    1  UNL1        0.0058
      6 C         140.5499  139.6468  158.5171 C.ar    1  UNL1        0.0537
      7 C         141.5201  140.7460  158.1999 C.ar    1  UNL1        0.0061
      8 C         142.0744  141.5985  159.3027 C.ar    1  UNL1        0.0191
      9 C         141.6584  141.3518  160.7225 C.ar    1  UNL1        0.0815
     10 C         139.6107  139.3837  163.4050 C.3     1  UNL1        0.1004
     11 N         139.5887  139.6166  164.8867 N.3     1  UNL1       -0.2675
     12 C         140.4205  140.7114  165.4862 C.3     1  UNL1        0.0787
     13 C         141.2743  141.5733  164.6041 C.3     1  UNL1        0.0627
     14 C         139.9957  138.7943  157.4143 C.2     1  UNL1        0.2490
     15 O         138.6465  139.1011  156.8350 O.2     1  UNL1       -0.2699
     16 N         140.7907  137.6351  156.8907 N.am    1  UNL1       -0.2761
     17 C         142.1399  137.3283  157.4700 C.3     1  UNL1        0.0937
     18 C         142.9349  136.1691  156.9464 C.3     1  UNL1        0.0216
     19 C         142.3807  135.3166  155.8436 C.3     1  UNL1        0.0034
     20 C         143.1757  134.1573  155.3200 C.3     1  UNL1        0.0001
     21 C         141.0315  135.6234  155.2644 C.3     1  UNL1        0.0216
     22 C         140.2365  136.7826  155.7879 C.3     1  UNL1        0.0937
     23 C         138.7349  138.7546  165.7688 C.3     1  UNL1        0.0900
     24 C         138.4221  137.3043  165.5482 C.3     1  UNL1        0.0506
     25 C         137.5379  136.8451  166.6695 C.3     1  UNL1        0.1437
     26 O         137.3042  138.0116  167.5830 O.3     1  UNL1       -0.3523
     27 C         138.0440  139.1918  167.0264 C.3     1  UNL1        0.1580
     28 S         142.9816  143.1775  162.1581 S.O2    1  UNL1        0.0660
     29 O         144.1405  142.2252  162.1614 O.2     1  UNL1       -0.1521
     30 O         141.8227  144.1298  162.1549 O.2     1  UNL1       -0.1521
     31 C         143.9290  144.3309  162.3066 C.3     1  UNL1        0.1751
     32 C         144.0339  144.2733  164.9018 C.3     1  UNL1        0.0019
     33 C         144.0357  145.0499  163.6187 C.3     1  UNL1        0.0276
@<TRIPOS>BOND
     1    32    33    1
     2    33    31    1
     3    31    28    1
     4    28    29    2
     5    28    30    2
     6    28     1    1
     7     1     2   ar
     8     2     3   ar
     9     3     4   ar
    10     4     5   ar
    11     5     6   ar
    12     6    14    1
    13    14    15    2
    14    14    16   am
    15    16    17    1
    16    17    18    1
    17    18    19    1
    18    19    20    1
    19    19    21    1
    20    21    22    1
    21     6     7   ar
    22     7     8   ar
    23     8     9   ar
    24     3    10    1
    25    10    11    1
    26    11    23    1
    27    23    24    1
    28    24    25    1
    29    25    26    1
    30    26    27    1
    31    11    12    1
    32    12    13    1
    33     9     1   ar
    34    27    23    1
    35    13     2    1
    36     9     4   ar
    37    22    16    1
@<TRIPOS>MOLECULE
*****
 33 37 0 0 0
SMALL
GASTEIGER

@<TRIPOS>ATOM
      1 N         142.3068  138.7216  157.6591 N.ar    1  UNL1       -0.2172
      2 C         141.8356  140.0740  157.2128 C.ar    1  UNL1        0.0586
      3 C         141.6713  140.9330  158.4315 C.ar    1  UNL1        0.0088
      4 C         142.0409  140.1115  159.6309 C.ar    1  UNL1        0.0161
      5 C         142.0706  140.4314  161.0961 C.ar    1  UNL1        0.0058
      6 C         142.4930  139.3846  162.0838 C.ar    1  UNL1        0.0537
      7 C         142.8858  138.0179  161.6065 C.ar    1  UNL1        0.0061
      8 C         142.8561  137.6980  160.1413 C.ar    1  UNL1        0.0191
      9 C         142.4337  138.7448  159.1535 C.ar    1  UNL1        0.0815
     10 C         141.2063  142.3522  158.2916 C.3     1  UNL1        0.1004
     11 N         140.9056  142.9124  156.9330 N.3     1  UNL1       -0.2675
     12 C         141.0700  142.0534  155.7143 C.3     1  UNL1        0.0787
     13 C         141.5349  140.6342  155.8542 C.3     1  UNL1        0.0627
     14 C         142.5227  139.7045  163.5491 C.2     1  UNL1        0.2490
     15 O         143.7598  140.2884  164.1644 O.2     1  UNL1       -0.2699
     16 N         141.3153  139.4405  164.3990 N.am    1  UNL1       -0.2761
     17 C         140.0781  138.8565  163.7837 C.3     1  UNL1        0.0937
     18 C         138.8707  138.5925  164.6336 C.3     1  UNL1        0.0216
     19 C         138.9004  138.9124  166.0988 C.3     1  UNL1        0.0034
     20 C         137.6929  138.6483  166.9487 C.3     1  UNL1        0.0001
     21 C         140.1375  139.4962  166.7141 C.3     1  UNL1        0.0216
     22 C         141.3449  139.7603  165.8642 C.3     1  UNL1        0.0937
     23 C         140.4406  144.3317  156.7931 C.3     1  UNL1        0.0900
     24 C         139.9946  144.9922  155.5224 C.3     1  UNL1        0.0506
     25 C         139.6184  146.4083  155.8434 C.3     1  UNL1        0.1437
     26 O         139.8319  146.6230  157.3124 O.3     1  UNL1       -0.3523
     27 C         140.3401  145.3396  157.8994 C.3     1  UNL1        0.1580
     28 S         142.5997  137.5515  156.7674 S.O2    1  UNL1        0.0660
     29 O         143.9960  138.0589  156.5602 O.2     1  UNL1       -0.1521
     30 O         141.2035  137.0441  156.9746 O.2     1  UNL1       -0.1521
     31 C         142.8927  136.3814  155.8758 C.3     1  UNL1        0.1751
     32 C         143.5587  134.2709  157.2367 C.3     1  UNL1        0.0019
     33 C         142.5910  134.9883  156.3429 C.3     1  UNL1        0.0276
@<TRIPOS>BOND
     1    32    33    1
     2    33    31    1
     3    31    28    1
     4    28    29    2
     5    28    30    2
     6    28     1    1
     7     1     2   ar
     8     2     3   ar
     9     3     4   ar
    10     4     5   ar
    11     5     6   ar
    12     6    14    1
    13    14    15    2
    14    14    16   am
    15    16    17    1
    16    17    18    1
    17    18    19    1
    18    19    20    1
    19    19    21    1
    20    21    22    1
    21     6     7   ar
    22     7     8   ar
    23     8     9   ar
    24     3    10    1
    25    10    11    1
    26    11    23    1
    27    23    24    1
    28    24    25    1
    29    25    26    1
    30    26    27    1
    31    11    12    1
    32    12    13    1
    33     9     1   ar
    34    27    23    1
    35    13     2    1
    36     9     4   ar
    37    22    16    1
@<TRIPOS>MOLECULE
*****
 33 37 0 0 0
SMALL
GASTEIGER

@<TRIPOS>ATOM
      1 N         141.3406  143.6514  158.6323 N.ar    1  UNL1       -0.2172
      2 C         141.7559  142.3993  157.9183 C.ar    1  UNL1        0.0586
      3 C         142.1179  141.3746  158.9522 C.ar    1  UNL1        0.0088
      4 C         141.9264  141.9934  160.3051 C.ar    1  UNL1        0.0161
      5 C         142.1274  141.4573  161.6915 C.ar    1  UNL1        0.0058
      6 C         141.8480  142.3284  162.8802 C.ar    1  UNL1        0.0537
      7 C         141.3676  143.7356  162.6825 C.ar    1  UNL1        0.0061
      8 C         141.1666  144.2717  161.2961 C.ar    1  UNL1        0.0191
      9 C         141.4460  143.4006  160.1074 C.ar    1  UNL1        0.0815
     10 C         142.5751  140.0104  158.5281 C.3     1  UNL1        0.1004
     11 N         142.6703  139.6710  157.0701 N.3     1  UNL1       -0.2675
     12 C         142.3083  140.6957  156.0362 C.3     1  UNL1        0.0787
     13 C         141.8511  142.0598  156.4603 C.3     1  UNL1        0.0627
     14 C         142.0490  141.7924  164.2667 C.2     1  UNL1        0.2490
     15 O         143.3408  142.0415  164.9872 O.2     1  UNL1       -0.2699
     16 N         140.9581  141.0072  164.9327 N.am    1  UNL1       -0.2761
     17 C         139.6662  140.7582  164.2122 C.3     1  UNL1        0.0937
     18 C         138.5753  139.9730  164.8782 C.3     1  UNL1        0.0216
     19 C         138.7763  139.4370  166.2647 C.3     1  UNL1        0.0034
     20 C         137.6854  138.6518  166.9306 C.3     1  UNL1        0.0001
     21 C         140.0682  139.6860  166.9851 C.3     1  UNL1        0.0216
     22 C         141.1590  140.4712  166.3191 C.3     1  UNL1        0.0937
     23 C         143.1276  138.3067  156.6460 C.3     1  UNL1        0.0900
     24 C         142.7565  137.0093  157.3009 C.3     1  UNL1        0.0506
     25 C         143.4358  135.9012  156.5521 C.3     1  UNL1        0.1437
     26 O         144.2267  136.5137  155.4345 O.3     1  UNL1       -0.3523
     27 C         144.0363  138.0005  155.4925 C.3     1  UNL1        0.1580
     28 S         140.8977  144.9300  157.9849 S.O2    1  UNL1        0.0660
     29 O         139.5424  144.3361  157.7391 O.2     1  UNL1       -0.1521
     30 O         142.2530  145.5239  158.2306 O.2     1  UNL1       -0.1521
     31 C         140.4548  146.2085  157.3374 C.3     1  UNL1        0.1751
     32 C         138.7906  147.0952  155.5501 C.3     1  UNL1        0.0019
     33 C         139.9274  146.1947  155.9332 C.3     1  UNL1        0.0276
@<TRIPOS>BOND
     1    32    33    1
     2    33    31    1
     3    31    28    1
     4    28    29    2
     5    28    30    2
     6    28     1    1
     7     1     2   ar
     8     2     3   ar
     9     3     4   ar
    10     4     5   ar
    11     5     6   ar
    12     6    14    1
    13    14    15    2
    14    14    16   am
    15    16    17    1
    16    17    18    1
    17    18    19    1
    18    19    20    1
    19    19    21    1
    20    21    22    1
    21     6     7   ar
    22     7     8   ar
    23     8     9   ar
    24     3    10    1
    25    10    11    1
    26    11    23    1
    27    23    24    1
    28    24    25    1
    29    25    26    1
    30    26    27    1
    31    11    12    1
    32    12    13    1
    33     9     1   ar
    34    27    23    1
    35    13     2    1
    36     9     4   ar
    37    22    16    1
@<TRIPOS>MOLECULE
*****
 33 37 0 0 0
SMALL
GASTEIGER

@<TRIPOS>ATOM
      1 N         139.2316  140.0510  157.0692 N.ar    1  UNL1       -0.2172
      2 C         139.7179  138.7299  156.5514 C.ar    1  UNL1        0.0586
      3 C         141.0044  138.4034  157.2502 C.ar    1  UNL1        0.0088
      4 C         141.3132  139.5228  158.1998 C.ar    1  UNL1        0.0161
      5 C         142.4505  139.7464  159.1519 C.ar    1  UNL1        0.0058
      6 C         142.4920  140.9882  159.9921 C.ar    1  UNL1        0.0537
      7 C         141.3963  142.0065  159.8803 C.ar    1  UNL1        0.0061
      8 C         140.2590  141.7829  158.9282 C.ar    1  UNL1        0.0191
      9 C         140.2175  140.5410  158.0879 C.ar    1  UNL1        0.0815
     10 C         141.7286  137.1291  156.9315 C.3     1  UNL1        0.1004
     11 N         141.1662  136.1811  155.9141 N.3     1  UNL1       -0.2675
     12 C         139.8797  136.5076  155.2153 C.3     1  UNL1        0.0787
     13 C         139.1556  137.7819  155.5340 C.3     1  UNL1        0.0627
     14 C         143.6294  141.2119  160.9443 C.2     1  UNL1        0.2490
     15 O         144.7314  142.1642  160.5858 O.2     1  UNL1       -0.2699
     16 N         143.6646  140.4831  162.2549 N.am    1  UNL1       -0.2761
     17 C         142.5624  139.5308  162.6134 C.3     1  UNL1        0.0937
     18 C         142.5977  138.8020  163.9240 C.3     1  UNL1        0.0216
     19 C         143.7350  139.0257  164.8762 C.3     1  UNL1        0.0034
     20 C         143.7702  138.2970  166.1868 C.3     1  UNL1        0.0001
     21 C         144.8370  139.9780  164.5177 C.3     1  UNL1        0.0216
     22 C         144.8018  140.7067  163.2071 C.3     1  UNL1        0.0937
     23 C         141.8904  134.9067  155.5954 C.3     1  UNL1        0.0900
     24 C         141.7412  134.0978  154.3411 C.3     1  UNL1        0.0506
     25 C         142.6496  132.9087  154.4456 C.3     1  UNL1        0.1437
     26 O         143.3601  132.9827  155.7646 O.3     1  UNL1       -0.3523
     27 C         142.8909  134.2176  156.4752 C.3     1  UNL1        0.1580
     28 S         137.9791  140.7580  156.6430 S.O2    1  UNL1        0.0660
     29 O         137.2656  140.2202  157.8478 O.2     1  UNL1       -0.1521
     30 O         138.6926  141.2958  155.4382 O.2     1  UNL1       -0.1521
     31 C         136.7267  141.4650  156.2169 C.3     1  UNL1        0.1751
     32 C         134.7749  140.2914  154.9666 C.3     1  UNL1        0.0019
     33 C         135.4114  140.7445  156.2470 C.3     1  UNL1        0.0276
@<TRIPOS>BOND
     1    32    33    1
     2    33    31    1
     3    31    28    1
     4    28    29    2
     5    28    30    2
     6    28     1    1
     7     1     2   ar
     8     2     3   ar
     9     3     4   ar
    10     4     5   ar
    11     5     6   ar
    12     6    14    1
    13    14    15    2
    14    14    16   am
    15    16    17    1
    16    17    18    1
    17    18    19    1
    18    19    20    1
    19    19    21    1
    20    21    22    1
    21     6     7   ar
    22     7     8   ar
    23     8     9   ar
    24     3    10    1
    25    10    11    1
    26    11    23    1
    27    23    24    1
    28    24    25    1
    29    25    26    1
    30    26    27    1
    31    11    12    1
    32    12    13    1
    33     9     1   ar
    34    27    23    1
    35    13     2    1
    36     9     4   ar
    37    22    16    1
@<TRIPOS>MOLECULE
*****
 33 37 0 0 0
SMALL
GASTEIGER

@<TRIPOS>ATOM
      1 N         141.4731  143.8286  158.8637 N.ar    1  UNL1       -0.2172
      2 C         141.7602  142.5250  158.1794 C.ar    1  UNL1        0.0586
      3 C         142.4204  141.6156  159.1728 C.ar    1  UNL1        0.0088
      4 C         142.5413  142.3570  160.4712 C.ar    1  UNL1        0.0161
      5 C         143.1089  141.9634  161.8027 C.ar    1  UNL1        0.0058
      6 C         143.0909  142.9376  162.9431 C.ar    1  UNL1        0.0537
      7 C         142.5054  144.3053  162.7521 C.ar    1  UNL1        0.0061
      8 C         141.9379  144.6989  161.4206 C.ar    1  UNL1        0.0191
      9 C         141.9558  143.7247  160.2801 C.ar    1  UNL1        0.0815
     10 C         142.8262  140.2297  158.7669 C.3     1  UNL1        0.1004
     11 N         142.5718  139.7534  157.3675 N.3     1  UNL1       -0.2675
     12 C         141.9117  140.6629  156.3740 C.3     1  UNL1        0.0787
     13 C         141.5059  142.0487  156.7799 C.3     1  UNL1        0.0627
     14 C         143.6585  142.5440  164.2747 C.2     1  UNL1        0.2490
     15 O         145.1064  142.1703  164.3920 O.2     1  UNL1       -0.2699
     16 N         142.7781  142.5243  165.4890 N.am    1  UNL1       -0.2761
     17 C         141.3301  142.8981  165.3717 C.3     1  UNL1        0.0937
     18 C         140.4496  142.8783  166.5859 C.3     1  UNL1        0.0216
     19 C         141.0172  142.4847  167.9175 C.3     1  UNL1        0.0034
     20 C         140.1368  142.4650  169.1318 C.3     1  UNL1        0.0001
     21 C         142.4651  142.1110  168.0348 C.3     1  UNL1        0.0216
     22 C         143.3455  142.1307  166.8205 C.3     1  UNL1        0.0937
     23 C         142.9777  138.3675  156.9615 C.3     1  UNL1        0.0900
     24 C         143.7604  138.0015  155.7354 C.3     1  UNL1        0.0506
     25 C         143.9385  136.5122  155.7266 C.3     1  UNL1        0.1437
     26 O         143.2658  135.9577  156.9473 O.3     1  UNL1       -0.3523
     27 C         142.6720  137.1044  157.7105 C.3     1  UNL1        0.1580
     28 S         140.8182  145.0258  158.2410 S.O2    1  UNL1        0.0660
     29 O         142.1660  145.6408  158.0059 O.2     1  UNL1       -0.1521
     30 O         139.4705  144.4109  158.4760 O.2     1  UNL1       -0.1521
     31 C         140.1634  146.2231  157.6182 C.3     1  UNL1        0.1751
     32 C         140.1355  145.3085  155.1867 C.3     1  UNL1        0.0019
     33 C         140.2776  146.4569  156.1410 C.3     1  UNL1        0.0276
@<TRIPOS>BOND
     1    32    33    1
     2    33    31    1
     3    31    28    1
     4    28    29    2
     5    28    30    2
     6    28     1    1
     7     1     2   ar
     8     2     3   ar
     9     3     4   ar
    10     4     5   ar
    11     5     6   ar
    12     6    14    1
    13    14    15    2
    14    14    16   am
    15    16    17    1
    16    17    18    1
    17    18    19    1
    18    19    20    1
    19    19    21    1
    20    21    22    1
    21     6     7   ar
    22     7     8   ar
    23     8     9   ar
    24     3    10    1
    25    10    11    1
    26    11    23    1
    27    23    24    1
    28    24    25    1
    29    25    26    1
    30    26    27    1
    31    11    12    1
    32    12    13    1
    33     9     1   ar
    34    27    23    1
    35    13     2    1
    36     9     4   ar
    37    22    16    1
@<TRIPOS>MOLECULE
*****
 33 37 0 0 0
SMALL
GASTEIGER

@<TRIPOS>ATOM
      1 N         142.3841  139.2205  157.7002 N.ar    1  UNL1       -0.2172
      2 C         141.8532  140.4973  157.1188 C.ar    1  UNL1        0.0586
      3 C         142.1220  141.6000  158.0994 C.ar    1  UNL1        0.0088
      4 C         142.8191  141.0048  159.2868 C.ar    1  UNL1        0.0161
      5 C         143.3272  141.6119  160.5608 C.ar    1  UNL1        0.0058
      6 C         143.9973  140.7484  161.5881 C.ar    1  UNL1        0.0537
      7 C         144.1592  139.2777  161.3413 C.ar    1  UNL1        0.0061
      8 C         143.6511  138.6706  160.0673 C.ar    1  UNL1        0.0191
      9 C         142.9810  139.5341  159.0401 C.ar    1  UNL1        0.0815
     10 C         141.6974  143.0037  157.7845 C.3     1  UNL1        0.1004
     11 N         141.0039  143.3047  156.4889 N.3     1  UNL1       -0.2675
     12 C         140.7351  142.2019  155.5082 C.3     1  UNL1        0.0787
     13 C         141.1597  140.7982  155.8232 C.3     1  UNL1        0.0627
     14 C         144.5054  141.3555  162.8622 C.2     1  UNL1        0.2490
     15 O         145.9648  141.6667  163.0148 O.2     1  UNL1       -0.2699
     16 N         143.5542  141.6514  163.9835 N.am    1  UNL1       -0.2761
     17 C         142.0947  141.3402  163.8308 C.3     1  UNL1        0.0937
     18 C         141.1435  141.6361  164.9522 C.3     1  UNL1        0.0216
     19 C         141.6516  142.2433  166.2263 C.3     1  UNL1        0.0034
     20 C         140.7004  142.5392  167.3477 C.3     1  UNL1        0.0001
     21 C         143.1110  142.5544  166.3790 C.3     1  UNL1        0.0216
     22 C         144.0623  142.2585  165.2576 C.3     1  UNL1        0.0937
     23 C         140.5793  144.7085  156.1739 C.3     1  UNL1        0.0900
     24 C         140.5474  145.3353  154.8115 C.3     1  UNL1        0.0506
     25 C         140.0604  146.7461  154.9617 C.3     1  UNL1        0.1437
     26 O         139.7914  146.9912  156.4169 O.3     1  UNL1       -0.3523
     27 C         140.1121  145.7318  157.1661 C.3     1  UNL1        0.1580
     28 S         142.3279  137.8675  157.0549 S.O2    1  UNL1        0.0660
     29 O         143.7178  138.0622  156.5257 O.2     1  UNL1       -0.1521
     30 O         140.9380  137.6728  157.5841 O.2     1  UNL1       -0.1521
     31 C         142.2718  136.5145  156.4096 C.3     1  UNL1        0.1751
     32 C         143.3764  134.1965  156.0141 C.3     1  UNL1        0.0019
     33 C         143.4946  135.6463  156.3801 C.3     1  UNL1        0.0276
@<TRIPOS>BOND
     1    32    33    1
     2    33    31    1
     3    31    28    1
     4    28    29    2
     5    28    30    2
     6    28     1    1
     7     1     2   ar
     8     2     3   ar
     9     3     4   ar
    10     4     5   ar
    11     5     6   ar
    12     6    14    1
    13    14    15    2
    14    14    16   am
    15    16    17    1
    16    17    18    1
    17    18    19    1
    18    19    20    1
    19    19    21    1
    20    21    22    1
    21     6     7   ar
    22     7     8   ar
    23     8     9   ar
    24     3    10    1
    25    10    11    1
    26    11    23    1
    27    23    24    1
    28    24    25    1
    29    25    26    1
    30    26    27    1
    31    11    12    1
    32    12    13    1
    33     9     1   ar
    34    27    23    1
    35    13     2    1
    36     9     4   ar
    37    22    16    1
@<TRIPOS>MOLECULE
*****
 33 37 0 0 0
SMALL
GASTEIGER

@<TRIPOS>ATOM
      1 N         140.9814  143.5788  158.3752 N.ar    1  UNL1       -0.2172
      2 C         141.5374  142.3280  157.7617 C.ar    1  UNL1        0.0586
      3 C         141.4193  141.2247  158.7710 C.ar    1  UNL1        0.0088
      4 C         140.7903  141.7936  160.0083 C.ar    1  UNL1        0.0161
      5 C         140.4291  141.1748  161.3261 C.ar    1  UNL1        0.0058
      6 C         139.7972  142.0110  162.3991 C.ar    1  UNL1        0.0537
      7 C         139.5266  143.4659  162.1545 C.ar    1  UNL1        0.0061
      8 C         139.8879  144.0847  160.8367 C.ar    1  UNL1        0.0191
      9 C         140.5197  143.2486  159.7636 C.ar    1  UNL1        0.0815
     10 C         141.8997  139.8445  158.4331 C.3     1  UNL1        0.1004
     11 N         142.4982  139.5676  157.0858 N.3     1  UNL1       -0.2675
     12 C         142.6163  140.6709  156.0765 C.3     1  UNL1        0.0787
     13 C         142.1359  142.0511  156.4144 C.3     1  UNL1        0.0627
     14 C         139.4360  141.3922  163.7170 C.2     1  UNL1        0.2490
     15 O         138.1703  140.5985  163.8510 O.2     1  UNL1       -0.2699
     16 N         140.3405  141.5671  164.9008 N.am    1  UNL1       -0.2761
     17 C         141.6062  142.3608  164.7667 C.3     1  UNL1        0.0937
     18 C         142.5107  142.5358  165.9504 C.3     1  UNL1        0.0216
     19 C         142.1494  141.9170  167.2683 C.3     1  UNL1        0.0034
     20 C         143.0539  142.0919  168.4520 C.3     1  UNL1        0.0001
     21 C         140.8837  141.1233  167.4023 C.3     1  UNL1        0.0216
     22 C         139.9792  140.9484  166.2185 C.3     1  UNL1        0.0937
     23 C         142.9787  138.1873  156.7479 C.3     1  UNL1        0.0900
     24 C         143.8079  137.8094  155.5565 C.3     1  UNL1        0.0506
     25 C         144.0559  136.3312  155.6144 C.3     1  UNL1        0.1437
     26 O         143.3799  135.7955  156.8416 O.3     1  UNL1       -0.3523
     27 C         142.7141  136.9427  157.5422 C.3     1  UNL1        0.1580
     28 S         140.9012  144.9238  157.7159 S.O2    1  UNL1        0.0660
     29 O         139.5917  144.5404  157.0930 O.2     1  UNL1       -0.1521
     30 O         142.2107  145.3072  158.3388 O.2     1  UNL1       -0.1521
     31 C         140.8210  146.2688  157.0566 C.3     1  UNL1        0.1751
     32 C         139.5967  147.3316  155.0265 C.3     1  UNL1        0.0019
     33 C         139.5504  146.7011  156.3867 C.3     1  UNL1        0.0276
@<TRIPOS>BOND
     1    32    33    1
     2    33    31    1
     3    31    28    1
     4    28    29    2
     5    28    30    2
     6    28     1    1
     7     1     2   ar
     8     2     3   ar
     9     3     4   ar
    10     4     5   ar
    11     5     6   ar
    12     6    14    1
    13    14    15    2
    14    14    16   am
    15    16    17    1
    16    17    18    1
    17    18    19    1
    18    19    20    1
    19    19    21    1
    20    21    22    1
    21     6     7   ar
    22     7     8   ar
    23     8     9   ar
    24     3    10    1
    25    10    11    1
    26    11    23    1
    27    23    24    1
    28    24    25    1
    29    25    26    1
    30    26    27    1
    31    11    12    1
    32    12    13    1
    33     9     1   ar
    34    27    23    1
    35    13     2    1
    36     9     4   ar
    37    22    16    1
