@<TRIPOS>MOLECULE
*****
 38 42 0 0 0
SMALL
GASTEIGER

@<TRIPOS>ATOM
      1 O         139.2192  146.2053  161.2811 O.2     1  UNL1       -0.2744
      2 C         140.5661  145.7340  161.7434 C.2     1  UNL1        0.2320
      3 N         141.4985  145.0644  160.7777 N.am    1  UNL1       -0.2639
      4 H         142.3825  144.7551  161.0811 H       1  UNL1        0.1567
      5 C         141.0839  144.8662  159.3499 C.ar    1  UNL1        0.1655
      6 N         141.5300  145.6915  158.1795 N.ar    1  UNL1       -0.2238
      7 C         140.8723  145.1432  156.9480 C.ar    1  UNL1        0.0914
      8 C         140.0196  143.9789  157.3572 C.ar    1  UNL1        0.0573
      9 S         140.1504  143.8077  158.8417 S.2     1  UNL1       -0.0508
     10 C         141.0381  145.6671  155.5523 C.ar    1  UNL1        0.0425
     11 C         141.8414  145.0262  154.4596 C.ar    1  UNL1        0.1021
     12 N         141.7294  145.8870  153.2362 N.ar    1  UNL1       -0.2269
     13 C         140.8569  147.0598  153.5728 C.ar    1  UNL1        0.1428
     14 N         140.3963  148.2338  152.7609 N.ar    1  UNL1       -0.3373
     15 C         139.5084  149.2720  153.3803 C.ar    1  UNL1        0.0758
     16 C         139.0811  149.1361  154.8118 C.ar    1  UNL1        0.0482
     17 C         139.5417  147.9621  155.6237 C.ar    1  UNL1        0.1445
     18 F         139.1145  147.8262  157.0552 F       1  UNL1       -0.2040
     19 C         140.4296  146.9239  155.0043 C.ar    1  UNL1        0.0644
     20 H         140.6767  148.3230  151.8214 H       1  UNL1        0.1674
     21 C         140.9807  145.9323  163.1712 C.3     1  UNL1        0.1118
     22 C         141.8323  144.9038  163.8547 C.ar    1  UNL1       -0.0101
     23 C         143.3201  145.0846  163.9188 C.ar    1  UNL1       -0.0036
     24 C         144.1717  144.0561  164.6023 C.ar    1  UNL1        0.0028
     25 C         143.5357  142.8470  165.2215 C.ar    1  UNL1        0.0369
     26 C         142.0480  142.6663  165.1573 C.ar    1  UNL1        0.1382
     27 C         141.1963  143.6946  164.4739 C.ar    1  UNL1        0.0331
     28 O         141.4119  141.4572  165.7765 O.3     1  UNL1       -0.4755
     29 C         140.8061  140.3984  164.9036 C.3     1  UNL1        0.2054
     30 C         139.5474  139.7034  165.3312 C.3     1  UNL1        0.0473
     31 C         138.2180  140.3678  165.1288 C.3     1  UNL1        0.0039
     32 C         138.0475  141.3891  164.0435 C.3     1  UNL1        0.0029
     33 C         138.1253  140.9742  162.6042 C.3     1  UNL1        0.0171
     34 C         137.9549  141.9955  161.5188 C.3     1  UNL1        0.0686
     35 N         137.7065  143.4318  161.8729 N.3     1  UNL1       -0.2975
     36 C         137.6287  143.8468  163.3123 C.3     1  UNL1        0.0686
     37 C         137.7992  142.8254  164.3976 C.3     1  UNL1        0.0171
     38 H         136.8188  143.6917  161.4431 H       1  UNL1        0.1232
@<TRIPOS>BOND
     1     1     2    2
     2     2    21    1
     3    21    22    1
     4    22    23   ar
     5    23    24   ar
     6    24    25   ar
     7    25    26   ar
     8    26    28    1
     9    28    29    1
    10    29    30    1
    11    30    31    1
    12    31    32    1
    13    32    33    1
    14    33    34    1
    15    34    35    1
    16    35    36    1
    17    36    37    1
    18    26    27   ar
    19     2     3   am
    20     3     5    1
    21     5     6   ar
    22     6     7   ar
    23     7    10    1
    24    10    11   ar
    25    11    12   ar
    26    12    13   ar
    27    13    14   ar
    28    14    15   ar
    29    15    16   ar
    30    16    17   ar
    31    17    18    1
    32    17    19   ar
    33     7     8   ar
    34     8     9   ar
    35    27    22   ar
    36     9     5   ar
    37    37    32    1
    38    19    10   ar
    39    19    13    1
    40    35    38    1
    41     3     4    1
    42    14    20    1
@<TRIPOS>MOLECULE
*****
 38 42 0 0 0
SMALL
GASTEIGER

@<TRIPOS>ATOM
      1 O         143.4384  137.6517  160.8592 O.2     1  UNL1       -0.2744
      2 C         143.4540  139.0976  160.4604 C.2     1  UNL1        0.2320
      3 N         142.8795  139.5176  159.1400 N.am    1  UNL1       -0.2639
      4 H         142.8897  140.4667  158.8783 H       1  UNL1        0.1567
      5 C         142.2894  138.4919  158.2184 C.ar    1  UNL1        0.1655
      6 N         143.0460  137.4180  157.4942 N.ar    1  UNL1       -0.2238
      7 C         142.0633  136.6222  156.6874 C.ar    1  UNL1        0.0914
      8 C         140.6993  137.2042  156.9129 C.ar    1  UNL1        0.0573
      9 S         140.8391  138.3596  157.8591 S.2     1  UNL1       -0.0508
     10 C         142.3876  135.4502  155.8092 C.ar    1  UNL1        0.0425
     11 C         142.0386  135.3135  154.3567 C.ar    1  UNL1        0.1021
     12 N         142.5531  133.9880  153.8792 N.ar    1  UNL1       -0.2269
     13 C         143.2202  133.3054  155.0364 C.ar    1  UNL1        0.1428
     14 N         143.9075  131.9777  155.1581 N.ar    1  UNL1       -0.3373
     15 C         144.4925  131.5538  156.4726 C.ar    1  UNL1        0.0758
     16 C         144.3902  132.4575  157.6655 C.ar    1  UNL1        0.0482
     17 C         143.7029  133.7852  157.5437 C.ar    1  UNL1        0.1445
     18 F         143.6006  134.6889  158.7366 F       1  UNL1       -0.2040
     19 C         143.1179  134.2091  156.2292 C.ar    1  UNL1        0.0644
     20 H         143.9746  131.3846  154.3752 H       1  UNL1        0.1674
     21 C         144.0441  140.1235  161.3820 C.3     1  UNL1        0.1118
     22 C         143.6889  140.1153  162.8393 C.ar    1  UNL1       -0.0101
     23 C         144.5028  139.3059  163.8051 C.ar    1  UNL1       -0.0036
     24 C         144.1475  139.2977  165.2625 C.ar    1  UNL1        0.0028
     25 C         142.9784  140.0988  165.7539 C.ar    1  UNL1        0.0369
     26 C         142.1646  140.9081  164.7882 C.ar    1  UNL1        0.1382
     27 C         142.5198  140.9164  163.3309 C.ar    1  UNL1        0.0331
     28 O         140.9956  141.7092  165.2797 O.3     1  UNL1       -0.4755
     29 C         139.8136  141.9375  164.3849 C.3     1  UNL1        0.2054
     30 C         138.5015  141.2788  164.6925 C.3     1  UNL1        0.0473
     31 C         138.4417  139.7978  164.9231 C.3     1  UNL1        0.0039
     32 C         139.3179  138.8786  164.1249 C.3     1  UNL1        0.0029
     33 C         140.2458  137.9308  164.8254 C.3     1  UNL1        0.0171
     34 C         141.1221  137.0115  164.0272 C.3     1  UNL1        0.0686
     35 N         141.0704  137.0400  162.5284 N.3     1  UNL1       -0.2975
     36 C         140.1425  137.9878  161.8278 C.3     1  UNL1        0.0686
     37 C         139.2663  138.9071  162.6260 C.3     1  UNL1        0.0171
     38 H         140.8158  136.1002  162.2246 H       1  UNL1        0.1232
@<TRIPOS>BOND
     1     1     2    2
     2     2    21    1
     3    21    22    1
     4    22    23   ar
     5    23    24   ar
     6    24    25   ar
     7    25    26   ar
     8    26    28    1
     9    28    29    1
    10    29    30    1
    11    30    31    1
    12    31    32    1
    13    32    33    1
    14    33    34    1
    15    34    35    1
    16    35    36    1
    17    36    37    1
    18    26    27   ar
    19     2     3   am
    20     3     5    1
    21     5     6   ar
    22     6     7   ar
    23     7    10    1
    24    10    11   ar
    25    11    12   ar
    26    12    13   ar
    27    13    14   ar
    28    14    15   ar
    29    15    16   ar
    30    16    17   ar
    31    17    18    1
    32    17    19   ar
    33     7     8   ar
    34     8     9   ar
    35    27    22   ar
    36     9     5   ar
    37    37    32    1
    38    19    10   ar
    39    19    13    1
    40    35    38    1
    41     3     4    1
    42    14    20    1
@<TRIPOS>MOLECULE
*****
 38 42 0 0 0
SMALL
GASTEIGER

@<TRIPOS>ATOM
      1 O         139.4213  146.1613  161.3577 O.2     1  UNL1       -0.2744
      2 C         140.7580  145.6610  161.8192 C.2     1  UNL1        0.2320
      3 N         141.6831  144.9887  160.8486 N.am    1  UNL1       -0.2639
      4 H         142.5604  144.6603  161.1515 H       1  UNL1        0.1567
      5 C         141.2716  144.8166  159.4166 C.ar    1  UNL1        0.1655
      6 N         139.8660  144.6650  158.9151 N.ar    1  UNL1       -0.2238
      7 C         139.9191  144.5206  157.4231 C.ar    1  UNL1        0.0914
      8 C         141.3575  144.5830  157.0022 C.ar    1  UNL1        0.0573
      9 S         142.1934  144.7659  158.2342 S.2     1  UNL1       -0.0508
     10 C         138.7407  144.3447  156.5118 C.ar    1  UNL1        0.0425
     11 C         138.2841  145.3156  155.4635 C.ar    1  UNL1        0.1021
     12 N         137.0732  144.7380  154.7927 N.ar    1  UNL1       -0.2269
     13 C         136.7814  143.4101  155.4264 C.ar    1  UNL1        0.1428
     14 N         135.7104  142.3909  155.1732 N.ar    1  UNL1       -0.3373
     15 C         135.6700  141.1286  155.9825 C.ar    1  UNL1        0.0758
     16 C         136.7005  140.8856  157.0450 C.ar    1  UNL1        0.0482
     17 C         137.7715  141.9048  157.2982 C.ar    1  UNL1        0.1445
     18 F         138.8021  141.6618  158.3607 F       1  UNL1       -0.2040
     19 C         137.8119  143.1670  156.4889 C.ar    1  UNL1        0.0644
     20 H         135.0340  142.5504  154.4759 H       1  UNL1        0.1674
     21 C         141.1696  145.8331  163.2514 C.3     1  UNL1        0.1118
     22 C         141.9826  144.7713  163.9308 C.ar    1  UNL1       -0.0101
     23 C         143.4799  144.8610  163.9350 C.ar    1  UNL1       -0.0036
     24 C         144.2930  143.7992  164.6145 C.ar    1  UNL1        0.0028
     25 C         143.6086  142.6477  165.2898 C.ar    1  UNL1        0.0369
     26 C         142.1113  142.5581  165.2856 C.ar    1  UNL1        0.1382
     27 C         141.2983  143.6198  164.6061 C.ar    1  UNL1        0.0331
     28 O         141.4270  141.4067  165.9608 O.3     1  UNL1       -0.4755
     29 C         140.6277  140.4296  165.1507 C.3     1  UNL1        0.2054
     30 C         139.2997  139.9469  165.6543 C.3     1  UNL1        0.0473
     31 C         138.0576  140.1958  164.8511 C.3     1  UNL1        0.0039
     32 C         137.9808  141.3826  163.9370 C.3     1  UNL1        0.0029
     33 C         137.7882  142.7568  164.5066 C.3     1  UNL1        0.0171
     34 C         137.7114  143.9437  163.5925 C.3     1  UNL1        0.0686
     35 N         137.8273  143.7563  162.1088 N.3     1  UNL1       -0.2975
     36 C         138.0199  142.3820  161.5391 C.3     1  UNL1        0.0686
     37 C         138.0967  141.1952  162.4533 C.3     1  UNL1        0.0171
     38 H         138.6230  144.3162  161.8025 H       1  UNL1        0.1232
@<TRIPOS>BOND
     1     1     2    2
     2     2    21    1
     3    21    22    1
     4    22    23   ar
     5    23    24   ar
     6    24    25   ar
     7    25    26   ar
     8    26    28    1
     9    28    29    1
    10    29    30    1
    11    30    31    1
    12    31    32    1
    13    32    33    1
    14    33    34    1
    15    34    35    1
    16    35    36    1
    17    36    37    1
    18    26    27   ar
    19     2     3   am
    20     3     5    1
    21     5     6   ar
    22     6     7   ar
    23     7    10    1
    24    10    11   ar
    25    11    12   ar
    26    12    13   ar
    27    13    14   ar
    28    14    15   ar
    29    15    16   ar
    30    16    17   ar
    31    17    18    1
    32    17    19   ar
    33     7     8   ar
    34     8     9   ar
    35    27    22   ar
    36     9     5   ar
    37    37    32    1
    38    19    10   ar
    39    19    13    1
    40    35    38    1
    41     3     4    1
    42    14    20    1
@<TRIPOS>MOLECULE
*****
 38 42 0 0 0
SMALL
GASTEIGER

@<TRIPOS>ATOM
      1 O         141.0976  139.3163  162.9267 O.2     1  UNL1       -0.2744
      2 C         139.9888  140.2083  162.4526 C.2     1  UNL1        0.2320
      3 N         138.9340  140.6694  163.4142 N.am    1  UNL1       -0.2639
      4 H         138.2062  141.2549  163.1030 H       1  UNL1        0.1567
      5 C         138.9880  140.2387  164.8499 C.ar    1  UNL1        0.1655
      6 N         139.5313  141.0446  165.9924 N.ar    1  UNL1       -0.2238
      7 C         139.3874  140.2304  167.2439 C.ar    1  UNL1        0.0914
      8 C         138.7550  138.9212  166.8749 C.ar    1  UNL1        0.0573
      9 S         138.5082  138.9263  165.3954 S.2     1  UNL1       -0.0508
     10 C         139.8028  140.6514  168.6224 C.ar    1  UNL1        0.0425
     11 C         138.9952  140.4863  169.8756 C.ar    1  UNL1        0.1021
     12 N         139.7920  141.0443  171.0174 N.ar    1  UNL1       -0.2269
     13 C         141.0921  141.5542  170.4698 C.ar    1  UNL1        0.1428
     14 N         142.2707  142.2083  171.1279 N.ar    1  UNL1       -0.3373
     15 C         143.4559  142.6196  170.3057 C.ar    1  UNL1        0.0758
     16 C         143.4626  142.3767  168.8255 C.ar    1  UNL1        0.0482
     17 C         142.2840  141.7227  168.1675 C.ar    1  UNL1        0.1445
     18 F         142.2906  141.4798  166.6873 F       1  UNL1       -0.2040
     19 C         141.0987  141.3114  168.9896 C.ar    1  UNL1        0.0644
     20 H         142.2663  142.3677  172.0994 H       1  UNL1        0.1674
     21 C         139.9347  140.6391  161.0168 C.3     1  UNL1        0.1118
     22 C         140.3526  142.0280  160.6342 C.ar    1  UNL1       -0.0101
     23 C         140.4936  142.3969  159.1871 C.ar    1  UNL1       -0.0036
     24 C         140.9115  143.7858  158.8045 C.ar    1  UNL1        0.0028
     25 C         141.1883  144.8058  159.8689 C.ar    1  UNL1        0.0369
     26 C         141.0472  144.4368  161.3160 C.ar    1  UNL1        0.1382
     27 C         140.6294  143.0480  161.6986 C.ar    1  UNL1        0.0331
     28 O         141.3240  145.4568  162.3805 O.3     1  UNL1       -0.4755
     29 C         142.0403  145.0553  163.6358 C.3     1  UNL1        0.2054
     30 C         143.5397  145.0570  163.6771 C.3     1  UNL1        0.0473
     31 C         144.3197  144.3204  162.6288 C.3     1  UNL1        0.0039
     32 C         144.4742  142.8310  162.7174 C.3     1  UNL1        0.0029
     33 C         145.0468  142.2087  163.9563 C.3     1  UNL1        0.0171
     34 C         145.2014  140.7193  164.0449 C.3     1  UNL1        0.0686
     35 N         144.7833  139.8522  162.8945 N.3     1  UNL1       -0.2975
     36 C         144.2107  140.4745  161.6555 C.3     1  UNL1        0.0686
     37 C         144.0562  141.9639  161.5670 C.3     1  UNL1        0.0171
     38 H         144.0789  139.2073  163.2527 H       1  UNL1        0.1232
@<TRIPOS>BOND
     1     1     2    2
     2     2    21    1
     3    21    22    1
     4    22    23   ar
     5    23    24   ar
     6    24    25   ar
     7    25    26   ar
     8    26    28    1
     9    28    29    1
    10    29    30    1
    11    30    31    1
    12    31    32    1
    13    32    33    1
    14    33    34    1
    15    34    35    1
    16    35    36    1
    17    36    37    1
    18    26    27   ar
    19     2     3   am
    20     3     5    1
    21     5     6   ar
    22     6     7   ar
    23     7    10    1
    24    10    11   ar
    25    11    12   ar
    26    12    13   ar
    27    13    14   ar
    28    14    15   ar
    29    15    16   ar
    30    16    17   ar
    31    17    18    1
    32    17    19   ar
    33     7     8   ar
    34     8     9   ar
    35    27    22   ar
    36     9     5   ar
    37    37    32    1
    38    19    10   ar
    39    19    13    1
    40    35    38    1
    41     3     4    1
    42    14    20    1
@<TRIPOS>MOLECULE
*****
 38 42 0 0 0
SMALL
GASTEIGER

@<TRIPOS>ATOM
      1 O         137.5159  141.6325  161.7310 O.2     1  UNL1       -0.2744
      2 C         138.5268  141.1052  160.7563 C.2     1  UNL1        0.2320
      3 N         139.4043  139.9499  161.1372 N.am    1  UNL1       -0.2639
      4 H         140.0677  139.6038  160.4975 H       1  UNL1        0.1567
      5 C         139.2709  139.3218  162.4928 C.ar    1  UNL1        0.1655
      6 N         139.3207  140.0427  163.8073 N.ar    1  UNL1       -0.2238
      7 C         139.1450  139.0291  164.8989 C.ar    1  UNL1        0.0914
      8 C         138.9866  137.6816  164.2591 C.ar    1  UNL1        0.0573
      9 S         139.0644  137.8626  162.7721 S.2     1  UNL1       -0.0508
     10 C         139.1302  139.3129  166.3717 C.ar    1  UNL1        0.0425
     11 C         138.0262  138.9650  167.3257 C.ar    1  UNL1        0.1021
     12 N         138.4306  139.4316  168.6927 N.ar    1  UNL1       -0.2269
     13 C         139.7845  140.0679  168.5836 C.ar    1  UNL1        0.1428
     14 N         140.6795  140.7046  169.6051 N.ar    1  UNL1       -0.3373
     15 C         142.0069  141.2680  169.1922 C.ar    1  UNL1        0.0758
     16 C         142.4393  141.1946  167.7577 C.ar    1  UNL1        0.0482
     17 C         141.5444  140.5579  166.7362 C.ar    1  UNL1        0.1445
     18 F         141.9768  140.4846  165.3018 F       1  UNL1       -0.2040
     19 C         140.2169  139.9946  167.1491 C.ar    1  UNL1        0.0644
     20 H         140.3957  140.7528  170.5466 H       1  UNL1        0.1674
     21 C         138.6601  141.7332  159.4007 C.3     1  UNL1        0.1118
     22 C         139.6168  142.8694  159.1913 C.ar    1  UNL1       -0.0101
     23 C         139.4411  143.7918  158.0215 C.ar    1  UNL1       -0.0036
     24 C         140.3978  144.9281  157.8120 C.ar    1  UNL1        0.0028
     25 C         141.5301  145.1418  158.7724 C.ar    1  UNL1        0.0369
     26 C         141.7058  144.2194  159.9421 C.ar    1  UNL1        0.1382
     27 C         140.7491  143.0832  160.1516 C.ar    1  UNL1        0.0331
     28 O         142.8380  144.4332  160.9024 O.3     1  UNL1       -0.4755
     29 C         143.1585  143.3873  161.9288 C.3     1  UNL1        0.2054
     30 C         143.0698  143.7176  163.3893 C.3     1  UNL1        0.0473
     31 C         142.1001  144.7582  163.8653 C.3     1  UNL1        0.0039
     32 C         140.6318  144.4535  163.9034 C.3     1  UNL1        0.0029
     33 C         140.0893  143.5039  164.9300 C.3     1  UNL1        0.0171
     34 C         138.6210  143.1992  164.9681 C.3     1  UNL1        0.0686
     35 N         137.6953  143.8441  163.9796 N.3     1  UNL1       -0.2975
     36 C         138.2379  144.7937  162.9530 C.3     1  UNL1        0.0686
     37 C         139.7061  145.0984  162.9149 C.3     1  UNL1        0.0171
     38 H         137.0007  144.3599  164.5198 H       1  UNL1        0.1232
@<TRIPOS>BOND
     1     1     2    2
     2     2    21    1
     3    21    22    1
     4    22    23   ar
     5    23    24   ar
     6    24    25   ar
     7    25    26   ar
     8    26    28    1
     9    28    29    1
    10    29    30    1
    11    30    31    1
    12    31    32    1
    13    32    33    1
    14    33    34    1
    15    34    35    1
    16    35    36    1
    17    36    37    1
    18    26    27   ar
    19     2     3   am
    20     3     5    1
    21     5     6   ar
    22     6     7   ar
    23     7    10    1
    24    10    11   ar
    25    11    12   ar
    26    12    13   ar
    27    13    14   ar
    28    14    15   ar
    29    15    16   ar
    30    16    17   ar
    31    17    18    1
    32    17    19   ar
    33     7     8   ar
    34     8     9   ar
    35    27    22   ar
    36     9     5   ar
    37    37    32    1
    38    19    10   ar
    39    19    13    1
    40    35    38    1
    41     3     4    1
    42    14    20    1
@<TRIPOS>MOLECULE
*****
 38 42 0 0 0
SMALL
GASTEIGER

@<TRIPOS>ATOM
      1 O         137.9053  138.7255  162.0092 O.2     1  UNL1       -0.2744
      2 C         139.0713  138.1774  162.7773 C.2     1  UNL1        0.2320
      3 N         140.4557  138.2715  162.2075 N.am    1  UNL1       -0.2639
      4 H         141.2210  137.9118  162.7116 H       1  UNL1        0.1567
      5 C         140.6740  138.9136  160.8697 C.ar    1  UNL1        0.1655
      6 N         141.5404  140.1070  160.5952 N.ar    1  UNL1       -0.2238
      7 C         141.4661  140.4061  159.1273 C.ar    1  UNL1        0.0914
      8 C         140.5539  139.3975  158.4943 C.ar    1  UNL1        0.0573
      9 S         140.0643  138.4751  159.5711 S.2     1  UNL1       -0.0508
     10 C         142.1790  141.5184  158.4169 C.ar    1  UNL1        0.0425
     11 C         143.3746  141.3704  157.5233 C.ar    1  UNL1        0.1021
     12 N         143.7559  142.7346  157.0296 N.ar    1  UNL1       -0.2269
     13 C         142.7959  143.7256  157.6180 C.ar    1  UNL1        0.1428
     14 N         142.6832  145.2153  157.4838 N.ar    1  UNL1       -0.3373
     15 C         141.5960  145.9533  158.2071 C.ar    1  UNL1        0.0758
     16 C         140.6214  145.2017  159.0645 C.ar    1  UNL1        0.0482
     17 C         140.7340  143.7120  159.1987 C.ar    1  UNL1        0.1445
     18 F         139.7594  142.9603  160.0561 F       1  UNL1       -0.2040
     19 C         141.8213  142.9739  158.4754 C.ar    1  UNL1        0.0644
     20 H         143.3229  145.7086  156.9211 H       1  UNL1        0.1674
     21 C         138.8530  137.5352  164.1152 C.3     1  UNL1        0.1118
     22 C         139.0711  138.3259  165.3711 C.ar    1  UNL1       -0.0101
     23 C         137.9686  138.4486  166.3810 C.ar    1  UNL1       -0.0036
     24 C         138.1867  139.2392  167.6370 C.ar    1  UNL1        0.0028
     25 C         139.5070  139.9071  167.8831 C.ar    1  UNL1        0.0369
     26 C         140.6094  139.7844  166.8732 C.ar    1  UNL1        0.1382
     27 C         140.3914  138.9938  165.6173 C.ar    1  UNL1        0.0331
     28 O         141.9298  140.4523  167.1193 O.3     1  UNL1       -0.4755
     29 C         142.0392  141.9466  167.0482 C.3     1  UNL1        0.2054
     30 C         141.4171  142.6906  165.9038 C.3     1  UNL1        0.0473
     31 C         140.0046  143.1841  166.0094 C.3     1  UNL1        0.0039
     32 C         139.1398  143.2503  164.7855 C.3     1  UNL1        0.0029
     33 C         139.0486  144.5247  163.9997 C.3     1  UNL1        0.0171
     34 C         138.1839  144.5910  162.7758 C.3     1  UNL1        0.0686
     35 N         137.4104  143.3828  162.3377 N.3     1  UNL1       -0.2975
     36 C         137.5016  142.1083  163.1236 C.3     1  UNL1        0.0686
     37 C         138.3663  142.0421  164.3474 C.3     1  UNL1        0.0171
     38 H         137.7153  143.1661  161.3888 H       1  UNL1        0.1232
@<TRIPOS>BOND
     1     1     2    2
     2     2    21    1
     3    21    22    1
     4    22    23   ar
     5    23    24   ar
     6    24    25   ar
     7    25    26   ar
     8    26    28    1
     9    28    29    1
    10    29    30    1
    11    30    31    1
    12    31    32    1
    13    32    33    1
    14    33    34    1
    15    34    35    1
    16    35    36    1
    17    36    37    1
    18    26    27   ar
    19     2     3   am
    20     3     5    1
    21     5     6   ar
    22     6     7   ar
    23     7    10    1
    24    10    11   ar
    25    11    12   ar
    26    12    13   ar
    27    13    14   ar
    28    14    15   ar
    29    15    16   ar
    30    16    17   ar
    31    17    18    1
    32    17    19   ar
    33     7     8   ar
    34     8     9   ar
    35    27    22   ar
    36     9     5   ar
    37    37    32    1
    38    19    10   ar
    39    19    13    1
    40    35    38    1
    41     3     4    1
    42    14    20    1
@<TRIPOS>MOLECULE
*****
 38 42 0 0 0
SMALL
GASTEIGER

@<TRIPOS>ATOM
      1 O         138.7336  141.7781  163.0241 O.2     1  UNL1       -0.2744
      2 C         139.7096  140.7619  162.5097 C.2     1  UNL1        0.2320
      3 N         140.2334  139.6947  163.4245 N.am    1  UNL1       -0.2639
      4 H         140.8740  139.0278  163.0868 H       1  UNL1        0.1567
      5 C         139.7811  139.6437  164.8536 C.ar    1  UNL1        0.1655
      6 N         140.3974  140.3883  166.0007 N.ar    1  UNL1       -0.2238
      7 C         139.6303  140.0439  167.2428 C.ar    1  UNL1        0.0914
      8 C         138.5397  139.0865  166.8635 C.ar    1  UNL1        0.0573
      9 S         138.6329  138.8391  165.3869 S.2     1  UNL1       -0.0508
     10 C         139.9054  140.5654  168.6220 C.ar    1  UNL1        0.0425
     11 C         138.9842  140.4670  169.8018 C.ar    1  UNL1        0.1021
     12 N         139.6595  141.1177  170.9725 N.ar    1  UNL1       -0.2269
     13 C         140.9979  141.6182  170.5164 C.ar    1  UNL1        0.1428
     14 N         142.0979  142.3406  171.2361 N.ar    1  UNL1       -0.3373
     15 C         143.3498  142.7218  170.5031 C.ar    1  UNL1        0.0758
     16 C         143.5018  142.3805  169.0504 C.ar    1  UNL1        0.0482
     17 C         142.4018  141.6580  168.3307 C.ar    1  UNL1        0.1445
     18 F         142.5538  141.3167  166.8779 F       1  UNL1       -0.2040
     19 C         141.1499  141.2769  169.0637 C.ar    1  UNL1        0.0644
     20 H         141.9982  142.5647  172.1896 H       1  UNL1        0.1674
     21 C         140.1620  140.8129  161.0804 C.3     1  UNL1        0.1118
     22 C         141.5076  141.3813  160.7394 C.ar    1  UNL1       -0.0101
     23 C         141.6420  142.3704  159.6196 C.ar    1  UNL1       -0.0036
     24 C         142.9877  142.9388  159.2786 C.ar    1  UNL1        0.0028
     25 C         144.1988  142.5182  160.0574 C.ar    1  UNL1        0.0369
     26 C         144.0643  141.5292  161.1771 C.ar    1  UNL1        0.1382
     27 C         142.7187  140.9608  161.5181 C.ar    1  UNL1        0.0331
     28 O         145.2753  141.1086  161.9558 O.3     1  UNL1       -0.4755
     29 C         145.6848  141.8758  163.1780 C.3     1  UNL1        0.2054
     30 C         144.6518  142.5979  163.9914 C.3     1  UNL1        0.0473
     31 C         144.0692  143.8863  163.4908 C.3     1  UNL1        0.0039
     32 C         142.5919  144.1282  163.5858 C.3     1  UNL1        0.0029
     33 C         141.8311  143.6600  164.7907 C.3     1  UNL1        0.0171
     34 C         140.3537  143.9019  164.8857 C.3     1  UNL1        0.0686
     35 N         139.6372  144.6120  163.7757 N.3     1  UNL1       -0.2975
     36 C         140.3980  145.0802  162.5706 C.3     1  UNL1        0.0686
     37 C         141.8753  144.8383  162.4757 C.3     1  UNL1        0.0171
     38 H         139.2008  145.4370  164.1872 H       1  UNL1        0.1232
@<TRIPOS>BOND
     1     1     2    2
     2     2    21    1
     3    21    22    1
     4    22    23   ar
     5    23    24   ar
     6    24    25   ar
     7    25    26   ar
     8    26    28    1
     9    28    29    1
    10    29    30    1
    11    30    31    1
    12    31    32    1
    13    32    33    1
    14    33    34    1
    15    34    35    1
    16    35    36    1
    17    36    37    1
    18    26    27   ar
    19     2     3   am
    20     3     5    1
    21     5     6   ar
    22     6     7   ar
    23     7    10    1
    24    10    11   ar
    25    11    12   ar
    26    12    13   ar
    27    13    14   ar
    28    14    15   ar
    29    15    16   ar
    30    16    17   ar
    31    17    18    1
    32    17    19   ar
    33     7     8   ar
    34     8     9   ar
    35    27    22   ar
    36     9     5   ar
    37    37    32    1
    38    19    10   ar
    39    19    13    1
    40    35    38    1
    41     3     4    1
    42    14    20    1
@<TRIPOS>MOLECULE
*****
 38 42 0 0 0
SMALL
GASTEIGER

@<TRIPOS>ATOM
      1 O         142.7573  138.2897  162.3618 O.2     1  UNL1       -0.2744
      2 C         141.3309  137.8307  162.4307 C.2     1  UNL1        0.2320
      3 N         140.4147  138.0516  161.2637 N.am    1  UNL1       -0.2639
      4 H         139.4785  137.7504  161.3090 H       1  UNL1        0.1567
      5 C         140.9249  138.7313  160.0279 C.ar    1  UNL1        0.1655
      6 N         142.1795  138.3821  159.2835 N.ar    1  UNL1       -0.2238
      7 C         142.3001  139.3146  158.1149 C.ar    1  UNL1        0.0914
      8 C         141.1200  140.2403  158.1369 C.ar    1  UNL1        0.0573
      9 S         140.2701  139.8798  159.3191 S.2     1  UNL1       -0.0508
     10 C         143.4065  139.3204  157.1020 C.ar    1  UNL1        0.0425
     11 C         143.6284  138.2921  156.0327 C.ar    1  UNL1        0.1021
     12 N         144.8443  138.6918  155.2505 N.ar    1  UNL1       -0.2269
     13 C         145.3738  139.9671  155.8363 C.ar    1  UNL1        0.1428
     14 N         146.5503  140.8248  155.4757 N.ar    1  UNL1       -0.3373
     15 C         146.8382  142.0710  156.2593 C.ar    1  UNL1        0.0758
     16 C         145.9496  142.4595  157.4036 C.ar    1  UNL1        0.0482
     17 C         144.7731  141.6018  157.7643 C.ar    1  UNL1        0.1445
     18 F         143.8845  141.9903  158.9086 F       1  UNL1       -0.2040
     19 C         144.4852  140.3556  156.9807 C.ar    1  UNL1        0.0644
     20 H         147.1336  140.5698  154.7246 H       1  UNL1        0.1674
     21 C         140.8207  137.1510  163.6667 C.3     1  UNL1        0.1118
     22 C         140.2752  137.9673  164.8007 C.ar    1  UNL1       -0.0101
     23 C         138.8121  137.9137  165.1274 C.ar    1  UNL1       -0.0036
     24 C         138.2665  138.7301  166.2615 C.ar    1  UNL1        0.0028
     25 C         139.1840  139.5999  167.0688 C.ar    1  UNL1        0.0369
     26 C         140.6470  139.6534  166.7420 C.ar    1  UNL1        0.1382
     27 C         141.1926  138.8371  165.6080 C.ar    1  UNL1        0.0331
     28 O         141.5645  140.5232  167.5493 O.3     1  UNL1       -0.4755
     29 C         141.3417  142.0057  167.5987 C.3     1  UNL1        0.2054
     30 C         140.9984  142.7549  166.3453 C.3     1  UNL1        0.0473
     31 C         139.6673  143.4347  166.2186 C.3     1  UNL1        0.0039
     32 C         138.9372  143.4156  164.9084 C.3     1  UNL1        0.0029
     33 C         138.2279  142.1711  164.4632 C.3     1  UNL1        0.0171
     34 C         137.4977  142.1519  163.1530 C.3     1  UNL1        0.0686
     35 N         137.4768  143.3772  162.2881 N.3     1  UNL1       -0.2975
     36 C         138.1861  144.6218  162.7334 C.3     1  UNL1        0.0686
     37 C         138.9162  144.6409  164.0435 C.3     1  UNL1        0.0171
     38 H         136.4969  143.6279  162.1563 H       1  UNL1        0.1232
@<TRIPOS>BOND
     1     1     2    2
     2     2    21    1
     3    21    22    1
     4    22    23   ar
     5    23    24   ar
     6    24    25   ar
     7    25    26   ar
     8    26    28    1
     9    28    29    1
    10    29    30    1
    11    30    31    1
    12    31    32    1
    13    32    33    1
    14    33    34    1
    15    34    35    1
    16    35    36    1
    17    36    37    1
    18    26    27   ar
    19     2     3   am
    20     3     5    1
    21     5     6   ar
    22     6     7   ar
    23     7    10    1
    24    10    11   ar
    25    11    12   ar
    26    12    13   ar
    27    13    14   ar
    28    14    15   ar
    29    15    16   ar
    30    16    17   ar
    31    17    18    1
    32    17    19   ar
    33     7     8   ar
    34     8     9   ar
    35    27    22   ar
    36     9     5   ar
    37    37    32    1
    38    19    10   ar
    39    19    13    1
    40    35    38    1
    41     3     4    1
    42    14    20    1
@<TRIPOS>MOLECULE
*****
 38 42 0 0 0
SMALL
GASTEIGER

@<TRIPOS>ATOM
      1 O         139.3120  146.5936  160.3486 O.2     1  UNL1       -0.2744
      2 C         140.3075  145.4972  160.5868 C.2     1  UNL1        0.2320
      3 N         140.8547  144.7164  159.4289 N.am    1  UNL1       -0.2639
      4 H         141.5081  143.9967  159.5853 H       1  UNL1        0.1567
      5 C         140.4064  145.0320  158.0327 C.ar    1  UNL1        0.1655
      6 N         140.7175  146.2848  157.2687 N.ar    1  UNL1       -0.2238
      7 C         140.0717  146.1773  155.9192 C.ar    1  UNL1        0.0914
      8 C         139.3614  144.8580  155.8490 C.ar    1  UNL1        0.0573
      9 S         139.5683  144.1501  157.1552 S.2     1  UNL1       -0.0508
     10 C         140.1265  147.2081  154.8309 C.ar    1  UNL1        0.0425
     11 C         140.7482  147.0291  153.4775 C.ar    1  UNL1        0.1021
     12 N         140.5751  148.3093  152.7151 N.ar    1  UNL1       -0.2269
     13 C         139.8465  149.2793  153.5972 C.ar    1  UNL1        0.1428
     14 N         139.3997  150.6944  153.3786 N.ar    1  UNL1       -0.3373
     15 C         138.6757  151.4290  154.4677 C.ar    1  UNL1        0.0758
     16 C         138.3984  150.7484  155.7754 C.ar    1  UNL1        0.0482
     17 C         138.8452  149.3333  155.9939 C.ar    1  UNL1        0.1445
     18 F         138.5680  148.6527  157.3016 F       1  UNL1       -0.2040
     19 C         139.5693  148.5988  154.9048 C.ar    1  UNL1        0.0644
     20 H         139.5817  151.1411  152.5204 H       1  UNL1        0.1674
     21 C         140.7558  145.1816  161.9831 C.3     1  UNL1        0.1118
     22 C         139.8620  144.3990  162.8989 C.ar    1  UNL1       -0.0101
     23 C         139.9143  144.6344  164.3794 C.ar    1  UNL1       -0.0036
     24 C         139.0205  143.8518  165.2953 C.ar    1  UNL1        0.0028
     25 C         138.0745  142.8338  164.7306 C.ar    1  UNL1        0.0369
     26 C         138.0223  142.5984  163.2501 C.ar    1  UNL1        0.1382
     27 C         138.9160  143.3810  162.3343 C.ar    1  UNL1        0.0331
     28 O         137.0763  141.5804  162.6855 O.3     1  UNL1       -0.4755
     29 C         137.5993  140.4614  161.8344 C.3     1  UNL1        0.2054
     30 C         138.0954  139.1997  162.4763 C.3     1  UNL1        0.0473
     31 C         139.4043  139.1954  163.2089 C.3     1  UNL1        0.0039
     32 C         139.4331  139.4040  164.6940 C.3     1  UNL1        0.0029
     33 C         140.5806  140.1339  165.3268 C.3     1  UNL1        0.0171
     34 C         140.6095  140.3425  166.8119 C.3     1  UNL1        0.0686
     35 N         139.4907  139.8213  167.6644 N.3     1  UNL1       -0.2975
     36 C         138.3431  139.0913  167.0316 C.3     1  UNL1        0.0686
     37 C         138.3143  138.8827  165.5465 C.3     1  UNL1        0.0171
     38 H         139.0952  140.6238  168.1541 H       1  UNL1        0.1232
@<TRIPOS>BOND
     1     1     2    2
     2     2    21    1
     3    21    22    1
     4    22    23   ar
     5    23    24   ar
     6    24    25   ar
     7    25    26   ar
     8    26    28    1
     9    28    29    1
    10    29    30    1
    11    30    31    1
    12    31    32    1
    13    32    33    1
    14    33    34    1
    15    34    35    1
    16    35    36    1
    17    36    37    1
    18    26    27   ar
    19     2     3   am
    20     3     5    1
    21     5     6   ar
    22     6     7   ar
    23     7    10    1
    24    10    11   ar
    25    11    12   ar
    26    12    13   ar
    27    13    14   ar
    28    14    15   ar
    29    15    16   ar
    30    16    17   ar
    31    17    18    1
    32    17    19   ar
    33     7     8   ar
    34     8     9   ar
    35    27    22   ar
    36     9     5   ar
    37    37    32    1
    38    19    10   ar
    39    19    13    1
    40    35    38    1
    41     3     4    1
    42    14    20    1
