@<TRIPOS>MOLECULE
*****
 33 37 0 0 0
SMALL
GASTEIGER

@<TRIPOS>ATOM
      1 O         138.5228  139.0905  167.8153 O.2     1  UNL1       -0.2699
      2 C         139.4717  140.2521  167.8379 C.2     1  UNL1        0.2491
      3 N         139.5926  141.1451  166.6387 N.am    1  UNL1       -0.2761
      4 C         138.7648  140.8766  165.4171 C.3     1  UNL1        0.0937
      5 C         138.8857  141.7696  164.2180 C.3     1  UNL1        0.0217
      6 C         139.8346  142.9311  164.2406 C.3     1  UNL1        0.0060
      7 C         139.0067  142.6626  163.0188 C.3     1  UNL1        0.0175
      8 C         139.1277  143.5557  161.8198 C.3     1  UNL1        0.0724
      9 N         140.0765  144.7172  161.8423 N.3     1  UNL1       -0.2690
     10 C         140.9044  144.9857  163.0640 C.3     1  UNL1        0.0724
     11 C         140.7834  144.0927  164.2631 C.3     1  UNL1        0.0175
     12 C         140.6625  143.1996  165.4622 C.3     1  UNL1        0.0217
     13 C         140.5415  142.3066  166.6613 C.3     1  UNL1        0.0937
     14 C         140.2995  140.5206  169.0595 C.ar    1  UNL1        0.0567
     15 C         141.6022  139.8031  169.2554 C.ar    1  UNL1        0.0252
     16 C         142.4301  140.0717  170.4771 C.ar    1  UNL1        0.0990
     17 N         141.9553  141.0576  171.5029 N.ar    1  UNL1       -0.2423
     18 C         140.6526  141.7751  171.3071 C.ar    1  UNL1        0.0990
     19 C         139.8248  141.5066  170.0855 C.ar    1  UNL1        0.0252
     20 C         140.1975  145.6102  160.6432 C.3     1  UNL1        0.0992
     21 C         140.9580  145.1465  159.4363 C.ar    1  UNL1       -0.0031
     22 C         140.6096  145.6815  158.0790 C.ar    1  UNL1       -0.0027
     23 C         141.3701  145.2178  156.8721 C.ar    1  UNL1        0.0029
     24 C         142.4790  144.2189  157.0226 C.ar    1  UNL1        0.0375
     25 C         142.8273  143.6838  158.3799 C.ar    1  UNL1        0.1450
     26 C         142.0668  144.1476  159.5868 C.ar    1  UNL1        0.0346
     27 O         143.9362  142.6849  158.5304 O.3     1  UNL1       -0.4535
     28 C         144.1340  141.9752  159.8369 C.ar    1  UNL1        0.1453
     29 C         144.8786  142.6489  160.9512 C.ar    1  UNL1        0.0375
     30 C         145.0765  141.9391  162.2578 C.ar    1  UNL1        0.0031
     31 C         144.5297  140.5557  162.4500 C.ar    1  UNL1        0.0002
     32 C         143.7852  139.8819  161.3357 C.ar    1  UNL1        0.0031
     33 C         143.5873  140.5916  160.0292 C.ar    1  UNL1        0.0375
@<TRIPOS>BOND
     1     1     2    2
     2     2    14    1
     3    14    15   ar
     4    15    16   ar
     5    16    17   ar
     6    17    18   ar
     7    18    19   ar
     8     2     3   am
     9     3     4    1
    10     4     5    1
    11     5     6    1
    12     6     7    1
    13     7     8    1
    14     8     9    1
    15     9    20    1
    16    20    21    1
    17    21    22   ar
    18    22    23   ar
    19    23    24   ar
    20    24    25   ar
    21    25    27    1
    22    27    28    1
    23    28    29   ar
    24    29    30   ar
    25    30    31   ar
    26    31    32   ar
    27    32    33   ar
    28    25    26   ar
    29     9    10    1
    30    10    11    1
    31     6    12    1
    32    12    13    1
    33    19    14   ar
    34    13     3    1
    35    11     6    1
    36    26    21   ar
    37    33    28   ar
@<TRIPOS>MOLECULE
*****
 33 37 0 0 0
SMALL
GASTEIGER

@<TRIPOS>ATOM
      1 O         143.0137  138.6455  169.0090 O.2     1  UNL1       -0.2699
      2 C         142.7316  139.9070  168.2481 C.2     1  UNL1        0.2491
      3 N         142.8130  139.9136  166.7502 N.am    1  UNL1       -0.2761
      4 C         143.1763  138.6586  166.0134 C.3     1  UNL1        0.0937
      5 C         143.2576  138.6652  164.5156 C.3     1  UNL1        0.0217
      6 C         142.9756  139.9267  163.7547 C.3     1  UNL1        0.0060
      7 C         143.3390  138.6717  163.0178 C.3     1  UNL1        0.0175
      8 C         143.4203  138.6783  161.5200 C.3     1  UNL1        0.0724
      9 N         143.1382  139.9398  160.7591 N.3     1  UNL1       -0.2690
     10 C         142.7748  141.1948  161.4960 C.3     1  UNL1        0.0724
     11 C         142.6935  141.1883  162.9938 C.3     1  UNL1        0.0175
     12 C         142.6122  141.1817  164.4916 C.3     1  UNL1        0.0217
     13 C         142.5309  141.1751  165.9893 C.3     1  UNL1        0.0937
     14 C         142.3683  141.1620  168.9849 C.ar    1  UNL1        0.0567
     15 C         140.9505  141.6517  168.9785 C.ar    1  UNL1        0.0252
     16 C         140.5871  142.9067  169.7154 C.ar    1  UNL1        0.0990
     17 N         141.6416  143.6720  170.4587 N.ar    1  UNL1       -0.2423
     18 C         143.0594  143.1823  170.4651 C.ar    1  UNL1        0.0990
     19 C         143.4227  141.9273  169.7282 C.ar    1  UNL1        0.0252
     20 C         143.2195  139.9464  159.2613 C.3     1  UNL1        0.0992
     21 C         142.2877  139.0903  158.4559 C.ar    1  UNL1       -0.0031
     22 C         140.8084  139.1631  158.6932 C.ar    1  UNL1       -0.0027
     23 C         139.8765  138.3070  157.8878 C.ar    1  UNL1        0.0029
     24 C         140.4240  137.3781  156.8450 C.ar    1  UNL1        0.0375
     25 C         141.9033  137.3053  156.6076 C.ar    1  UNL1        0.1450
     26 C         142.8352  138.1614  157.4131 C.ar    1  UNL1        0.0346
     27 O         142.4508  136.3764  155.5648 O.3     1  UNL1       -0.4535
     28 C         142.5105  134.9015  155.8312 C.ar    1  UNL1        0.1453
     29 C         141.4890  133.9874  155.2221 C.ar    1  UNL1        0.0375
     30 C         141.5487  132.5124  155.4885 C.ar    1  UNL1        0.0031
     31 C         142.6298  131.9516  156.3639 C.ar    1  UNL1        0.0002
     32 C         143.6513  132.8657  156.9730 C.ar    1  UNL1        0.0031
     33 C         143.5917  134.3406  156.7067 C.ar    1  UNL1        0.0375
@<TRIPOS>BOND
     1     1     2    2
     2     2    14    1
     3    14    15   ar
     4    15    16   ar
     5    16    17   ar
     6    17    18   ar
     7    18    19   ar
     8     2     3   am
     9     3     4    1
    10     4     5    1
    11     5     6    1
    12     6     7    1
    13     7     8    1
    14     8     9    1
    15     9    20    1
    16    20    21    1
    17    21    22   ar
    18    22    23   ar
    19    23    24   ar
    20    24    25   ar
    21    25    27    1
    22    27    28    1
    23    28    29   ar
    24    29    30   ar
    25    30    31   ar
    26    31    32   ar
    27    32    33   ar
    28    25    26   ar
    29     9    10    1
    30    10    11    1
    31     6    12    1
    32    12    13    1
    33    19    14   ar
    34    13     3    1
    35    11     6    1
    36    26    21   ar
    37    33    28   ar
@<TRIPOS>MOLECULE
*****
 33 37 0 0 0
SMALL
GASTEIGER

@<TRIPOS>ATOM
      1 O         144.1562  139.6988  157.1038 O.2     1  UNL1       -0.2699
      2 C         143.1698  138.8482  157.8479 C.2     1  UNL1        0.2491
      3 N         143.1518  138.8586  159.3478 N.am    1  UNL1       -0.2761
      4 C         144.1200  139.7196  160.1035 C.3     1  UNL1        0.0937
      5 C         144.1019  139.7300  161.6034 C.3     1  UNL1        0.0217
      6 C         143.1156  138.8794  162.3474 C.3     1  UNL1        0.0060
      7 C         144.0838  139.7404  163.1033 C.3     1  UNL1        0.0175
      8 C         144.0657  139.7508  164.6031 C.3     1  UNL1        0.0724
      9 N         143.0794  138.9001  165.3472 N.3     1  UNL1       -0.2690
     10 C         142.1112  138.0392  164.5914 C.3     1  UNL1        0.0724
     11 C         142.1292  138.0287  163.0915 C.3     1  UNL1        0.0175
     12 C         142.1474  138.0184  161.5917 C.3     1  UNL1        0.0217
     13 C         142.1655  138.0080  160.0919 C.3     1  UNL1        0.0937
     14 C         142.2016  137.9872  157.0921 C.ar    1  UNL1        0.0567
     15 C         140.8522  138.5256  156.7189 C.ar    1  UNL1        0.0252
     16 C         139.8840  137.6645  155.9631 C.ar    1  UNL1        0.0990
     17 N         140.2652  136.2651  155.5806 N.ar    1  UNL1       -0.2423
     18 C         141.6146  135.7267  155.9538 C.ar    1  UNL1        0.0990
     19 C         142.5828  136.5877  156.7096 C.ar    1  UNL1        0.0252
     20 C         143.0613  138.9106  166.8471 C.3     1  UNL1        0.0992
     21 C         142.1334  139.8338  167.5796 C.ar    1  UNL1       -0.0031
     22 C         141.6999  139.5072  168.9779 C.ar    1  UNL1       -0.0027
     23 C         140.7720  140.4304  169.7104 C.ar    1  UNL1        0.0029
     24 C         140.2776  141.6804  169.0445 C.ar    1  UNL1        0.0375
     25 C         140.7111  142.0070  167.6462 C.ar    1  UNL1        0.1450
     26 C         141.6391  141.0836  166.9137 C.ar    1  UNL1        0.0346
     27 O         140.2168  143.2568  166.9803 O.3     1  UNL1       -0.4535
     28 C         139.3690  143.1642  165.7464 C.ar    1  UNL1        0.1453
     29 C         139.0003  144.4086  164.9945 C.ar    1  UNL1        0.0375
     30 C         138.1525  144.3159  163.7605 C.ar    1  UNL1        0.0031
     31 C         137.6734  142.9787  163.2785 C.ar    1  UNL1        0.0002
     32 C         138.0420  141.7343  164.0304 C.ar    1  UNL1        0.0031
     33 C         138.8898  141.8269  165.2643 C.ar    1  UNL1        0.0375
@<TRIPOS>BOND
     1     1     2    2
     2     2    14    1
     3    14    15   ar
     4    15    16   ar
     5    16    17   ar
     6    17    18   ar
     7    18    19   ar
     8     2     3   am
     9     3     4    1
    10     4     5    1
    11     5     6    1
    12     6     7    1
    13     7     8    1
    14     8     9    1
    15     9    20    1
    16    20    21    1
    17    21    22   ar
    18    22    23   ar
    19    23    24   ar
    20    24    25   ar
    21    25    27    1
    22    27    28    1
    23    28    29   ar
    24    29    30   ar
    25    30    31   ar
    26    31    32   ar
    27    32    33   ar
    28    25    26   ar
    29     9    10    1
    30    10    11    1
    31     6    12    1
    32    12    13    1
    33    19    14   ar
    34    13     3    1
    35    11     6    1
    36    26    21   ar
    37    33    28   ar
@<TRIPOS>MOLECULE
*****
 33 37 0 0 0
SMALL
GASTEIGER

@<TRIPOS>ATOM
      1 O         143.5557  138.3433  167.9978 O.2     1  UNL1       -0.2699
      2 C         142.4800  139.3832  167.8906 C.2     1  UNL1        0.2491
      3 N         141.6867  139.5137  166.6242 N.am    1  UNL1       -0.2761
      4 C         141.9691  138.6044  165.4652 C.3     1  UNL1        0.0937
      5 C         141.1758  138.7350  164.1989 C.3     1  UNL1        0.0217
      6 C         140.1001  139.7749  164.0916 C.3     1  UNL1        0.0060
      7 C         140.3824  138.8656  162.9325 C.3     1  UNL1        0.0175
      8 C         139.5891  138.9962  161.6662 C.3     1  UNL1        0.0724
      9 N         138.5134  140.0360  161.5589 N.3     1  UNL1       -0.2690
     10 C         138.2310  140.9453  162.7179 C.3     1  UNL1        0.0724
     11 C         139.0244  140.8148  163.9843 C.3     1  UNL1        0.0175
     12 C         139.8177  140.6842  165.2506 C.3     1  UNL1        0.0217
     13 C         140.6110  140.5536  166.5169 C.3     1  UNL1        0.0937
     14 C         142.1976  140.2925  169.0496 C.ar    1  UNL1        0.0567
     15 C         142.9563  141.5781  169.1965 C.ar    1  UNL1        0.0252
     16 C         142.6739  142.4874  170.3556 C.ar    1  UNL1        0.0990
     17 N         141.6328  142.1111  171.3677 N.ar    1  UNL1       -0.2423
     18 C         140.8741  140.8254  171.2209 C.ar    1  UNL1        0.0990
     19 C         141.1565  139.9161  170.0618 C.ar    1  UNL1        0.0252
     20 C         137.7201  140.1666  160.2925 C.3     1  UNL1        0.0992
     21 C         138.1612  141.1254  159.2267 C.ar    1  UNL1       -0.0031
     22 C         137.8453  140.8442  157.7875 C.ar    1  UNL1       -0.0027
     23 C         138.2864  141.8030  156.7217 C.ar    1  UNL1        0.0029
     24 C         139.0434  143.0431  157.0949 C.ar    1  UNL1        0.0375
     25 C         139.3593  143.3243  158.5341 C.ar    1  UNL1        0.1450
     26 C         138.9181  142.3654  159.6000 C.ar    1  UNL1        0.0346
     27 O         140.1162  144.5643  158.9074 O.3     1  UNL1       -0.4535
     28 C         140.6955  144.7034  160.2840 C.ar    1  UNL1        0.1453
     29 C         139.9856  145.5280  161.3166 C.ar    1  UNL1        0.0375
     30 C         140.5649  145.6671  162.6932 C.ar    1  UNL1        0.0031
     31 C         141.8540  144.9817  163.0372 C.ar    1  UNL1        0.0002
     32 C         142.5639  144.1572  162.0047 C.ar    1  UNL1        0.0031
     33 C         141.9847  144.0180  160.6281 C.ar    1  UNL1        0.0375
@<TRIPOS>BOND
     1     1     2    2
     2     2    14    1
     3    14    15   ar
     4    15    16   ar
     5    16    17   ar
     6    17    18   ar
     7    18    19   ar
     8     2     3   am
     9     3     4    1
    10     4     5    1
    11     5     6    1
    12     6     7    1
    13     7     8    1
    14     8     9    1
    15     9    20    1
    16    20    21    1
    17    21    22   ar
    18    22    23   ar
    19    23    24   ar
    20    24    25   ar
    21    25    27    1
    22    27    28    1
    23    28    29   ar
    24    29    30   ar
    25    30    31   ar
    26    31    32   ar
    27    32    33   ar
    28    25    26   ar
    29     9    10    1
    30    10    11    1
    31     6    12    1
    32    12    13    1
    33    19    14   ar
    34    13     3    1
    35    11     6    1
    36    26    21   ar
    37    33    28   ar
@<TRIPOS>MOLECULE
*****
 33 37 0 0 0
SMALL
GASTEIGER

@<TRIPOS>ATOM
      1 O         138.5866  139.1374  167.7565 O.2     1  UNL1       -0.2699
      2 C         139.5640  140.2749  167.7838 C.2     1  UNL1        0.2491
      3 N         139.7462  141.1365  166.5694 N.am    1  UNL1       -0.2761
      4 C         138.9510  140.8605  165.3279 C.3     1  UNL1        0.0937
      5 C         139.1332  141.7221  164.1137 C.3     1  UNL1        0.0217
      6 C         140.1106  142.8596  164.1409 C.3     1  UNL1        0.0060
      7 C         139.3153  142.5837  162.8993 C.3     1  UNL1        0.0175
      8 C         139.4975  143.4453  161.6851 C.3     1  UNL1        0.0724
      9 N         140.4749  144.5828  161.7123 N.3     1  UNL1       -0.2690
     10 C         141.2701  144.8587  162.9539 C.3     1  UNL1        0.0724
     11 C         141.0880  143.9971  164.1682 C.3     1  UNL1        0.0175
     12 C         140.9058  143.1356  165.3825 C.3     1  UNL1        0.0217
     13 C         140.7236  142.2740  166.5967 C.3     1  UNL1        0.0937
     14 C         140.3592  140.5508  169.0253 C.ar    1  UNL1        0.0567
     15 C         139.8577  141.5432  170.0321 C.ar    1  UNL1        0.0252
     16 C         140.6530  141.8191  171.2737 C.ar    1  UNL1        0.0990
     17 N         141.9497  141.1027  171.5084 N.ar    1  UNL1       -0.2423
     18 C         142.4513  140.1104  170.5016 C.ar    1  UNL1        0.0990
     19 C         141.6561  139.8344  169.2601 C.ar    1  UNL1        0.0252
     20 C         140.6571  145.4444  160.4980 C.3     1  UNL1        0.0992
     21 C         141.3149  144.8834  159.2722 C.ar    1  UNL1       -0.0031
     22 C         141.0204  145.4750  157.9256 C.ar    1  UNL1       -0.0027
     23 C         141.6782  144.9141  156.6999 C.ar    1  UNL1        0.0029
     24 C         142.6306  143.7615  156.8207 C.ar    1  UNL1        0.0375
     25 C         142.9252  143.1699  158.1672 C.ar    1  UNL1        0.1450
     26 C         142.2673  143.7309  159.3930 C.ar    1  UNL1        0.0346
     27 O         143.8776  142.0174  158.2881 O.3     1  UNL1       -0.4535
     28 C         145.1284  141.9882  157.4607 C.ar    1  UNL1        0.1453
     29 C         146.3048  142.8336  157.8496 C.ar    1  UNL1        0.0375
     30 C         147.5557  142.8044  157.0222 C.ar    1  UNL1        0.0031
     31 C         147.6300  141.9298  155.8058 C.ar    1  UNL1        0.0002
     32 C         146.4536  141.0844  155.4169 C.ar    1  UNL1        0.0031
     33 C         145.2028  141.1136  156.2443 C.ar    1  UNL1        0.0375
@<TRIPOS>BOND
     1     1     2    2
     2     2    14    1
     3    14    15   ar
     4    15    16   ar
     5    16    17   ar
     6    17    18   ar
     7    18    19   ar
     8     2     3   am
     9     3     4    1
    10     4     5    1
    11     5     6    1
    12     6     7    1
    13     7     8    1
    14     8     9    1
    15     9    20    1
    16    20    21    1
    17    21    22   ar
    18    22    23   ar
    19    23    24   ar
    20    24    25   ar
    21    25    27    1
    22    27    28    1
    23    28    29   ar
    24    29    30   ar
    25    30    31   ar
    26    31    32   ar
    27    32    33   ar
    28    25    26   ar
    29     9    10    1
    30    10    11    1
    31     6    12    1
    32    12    13    1
    33    19    14   ar
    34    13     3    1
    35    11     6    1
    36    26    21   ar
    37    33    28   ar
@<TRIPOS>MOLECULE
*****
 33 37 0 0 0
SMALL
GASTEIGER

@<TRIPOS>ATOM
      1 O         142.4855  144.0745  157.8373 O.2     1  UNL1       -0.2699
      2 C         143.1867  142.9023  158.4571 C.2     1  UNL1        0.2491
      3 N         143.1429  142.7020  159.9431 N.am    1  UNL1       -0.2761
      4 C         142.3978  143.6740  160.8091 C.3     1  UNL1        0.0937
      5 C         142.3539  143.4737  162.2950 C.3     1  UNL1        0.0217
      6 C         143.0552  142.3015  162.9149 C.3     1  UNL1        0.0060
      7 C         142.3101  143.2735  163.7810 C.3     1  UNL1        0.0175
      8 C         142.2662  143.0732  165.2669 C.3     1  UNL1        0.0724
      9 N         142.9675  141.9010  165.8867 N.3     1  UNL1       -0.2690
     10 C         143.7125  140.9291  165.0207 C.3     1  UNL1        0.0724
     11 C         143.7564  141.1293  163.5347 C.3     1  UNL1        0.0175
     12 C         143.8003  141.3296  162.0488 C.3     1  UNL1        0.0217
     13 C         143.8441  141.5298  160.5629 C.3     1  UNL1        0.0937
     14 C         143.9318  141.9303  157.5910 C.ar    1  UNL1        0.0567
     15 C         145.3464  142.2196  157.1844 C.ar    1  UNL1        0.0252
     16 C         146.0914  141.2475  156.3182 C.ar    1  UNL1        0.0990
     17 N         145.4220  139.9863  155.8588 N.ar    1  UNL1       -0.2423
     18 C         144.0074  139.6971  156.2655 C.ar    1  UNL1        0.0990
     19 C         143.2623  140.6690  157.1316 C.ar    1  UNL1        0.0252
     20 C         142.9236  141.7008  167.3727 C.3     1  UNL1        0.0992
     21 C         141.6488  141.2675  168.0338 C.ar    1  UNL1       -0.0031
     22 C         141.3370  141.7185  169.4300 C.ar    1  UNL1       -0.0027
     23 C         140.0622  141.2852  170.0910 C.ar    1  UNL1        0.0029
     24 C         139.0991  140.4008  169.3559 C.ar    1  UNL1        0.0375
     25 C         139.4109  139.9497  167.9597 C.ar    1  UNL1        0.1450
     26 C         140.6858  140.3831  167.2987 C.ar    1  UNL1        0.0346
     27 O         138.4479  139.0654  167.2246 O.3     1  UNL1       -0.4535
     28 C         138.5051  138.9747  165.7285 C.ar    1  UNL1        0.1453
     29 C         138.0741  140.1410  164.8894 C.ar    1  UNL1        0.0375
     30 C         138.1313  140.0503  163.3932 C.ar    1  UNL1        0.0031
     31 C         138.6195  138.7934  162.7361 C.ar    1  UNL1        0.0002
     32 C         139.0504  137.6271  163.5752 C.ar    1  UNL1        0.0031
     33 C         138.9932  137.7177  165.0713 C.ar    1  UNL1        0.0375
@<TRIPOS>BOND
     1     1     2    2
     2     2    14    1
     3    14    15   ar
     4    15    16   ar
     5    16    17   ar
     6    17    18   ar
     7    18    19   ar
     8     2     3   am
     9     3     4    1
    10     4     5    1
    11     5     6    1
    12     6     7    1
    13     7     8    1
    14     8     9    1
    15     9    20    1
    16    20    21    1
    17    21    22   ar
    18    22    23   ar
    19    23    24   ar
    20    24    25   ar
    21    25    27    1
    22    27    28    1
    23    28    29   ar
    24    29    30   ar
    25    30    31   ar
    26    31    32   ar
    27    32    33   ar
    28    25    26   ar
    29     9    10    1
    30    10    11    1
    31     6    12    1
    32    12    13    1
    33    19    14   ar
    34    13     3    1
    35    11     6    1
    36    26    21   ar
    37    33    28   ar
@<TRIPOS>MOLECULE
*****
 33 37 0 0 0
SMALL
GASTEIGER

@<TRIPOS>ATOM
      1 O         144.8438  137.1638  155.3670 O.2     1  UNL1       -0.2699
      2 C         143.6054  136.8409  156.1493 C.2     1  UNL1        0.2491
      3 N         142.9003  137.9199  156.9166 N.am    1  UNL1       -0.2761
      4 C         143.4336  139.3218  156.9015 C.3     1  UNL1        0.0937
      5 C         142.7286  140.4008  157.6687 C.3     1  UNL1        0.0217
      6 C         141.4901  140.0778  158.4511 C.3     1  UNL1        0.0060
      7 C         142.0235  141.4798  158.4360 C.3     1  UNL1        0.0175
      8 C         141.3184  142.5588  159.2032 C.3     1  UNL1        0.0724
      9 N         140.0800  142.2358  159.9856 N.3     1  UNL1       -0.2690
     10 C         139.5467  140.8340  160.0007 C.3     1  UNL1        0.0724
     11 C         140.2517  139.7549  159.2334 C.3     1  UNL1        0.0175
     12 C         140.9568  138.6760  158.4662 C.3     1  UNL1        0.0217
     13 C         141.6619  137.5970  157.6990 C.3     1  UNL1        0.0937
     14 C         143.0720  135.4390  156.1645 C.ar    1  UNL1        0.0567
     15 C         141.9809  135.0414  155.2151 C.ar    1  UNL1        0.0252
     16 C         141.4476  133.6395  155.2302 C.ar    1  UNL1        0.0990
     17 N         142.0053  132.6352  156.1947 N.ar    1  UNL1       -0.2423
     18 C         143.0964  133.0328  157.1441 C.ar    1  UNL1        0.0990
     19 C         143.6298  134.4347  157.1290 C.ar    1  UNL1        0.0252
     20 C         139.3749  143.3149  160.7528 C.3     1  UNL1        0.0992
     21 C         139.5352  143.4036  162.2416 C.ar    1  UNL1       -0.0031
     22 C         138.3244  143.4994  163.1218 C.ar    1  UNL1       -0.0027
     23 C         138.4846  143.5882  164.6106 C.ar    1  UNL1        0.0029
     24 C         139.8557  143.5811  165.2191 C.ar    1  UNL1        0.0375
     25 C         141.0664  143.4853  164.3389 C.ar    1  UNL1        0.1450
     26 C         140.9061  143.3965  162.8501 C.ar    1  UNL1        0.0346
     27 O         142.4374  143.4782  164.9474 O.3     1  UNL1       -0.4535
     28 C         143.3694  142.3331  164.6828 C.ar    1  UNL1        0.1453
     29 C         142.9400  140.9296  164.9922 C.ar    1  UNL1        0.0375
     30 C         143.8721  139.7845  164.7276 C.ar    1  UNL1        0.0031
     31 C         145.2336  140.0429  164.1536 C.ar    1  UNL1        0.0002
     32 C         145.6630  141.4464  163.8442 C.ar    1  UNL1        0.0031
     33 C         144.7310  142.5915  164.1088 C.ar    1  UNL1        0.0375
@<TRIPOS>BOND
     1     1     2    2
     2     2    14    1
     3    14    15   ar
     4    15    16   ar
     5    16    17   ar
     6    17    18   ar
     7    18    19   ar
     8     2     3   am
     9     3     4    1
    10     4     5    1
    11     5     6    1
    12     6     7    1
    13     7     8    1
    14     8     9    1
    15     9    20    1
    16    20    21    1
    17    21    22   ar
    18    22    23   ar
    19    23    24   ar
    20    24    25   ar
    21    25    27    1
    22    27    28    1
    23    28    29   ar
    24    29    30   ar
    25    30    31   ar
    26    31    32   ar
    27    32    33   ar
    28    25    26   ar
    29     9    10    1
    30    10    11    1
    31     6    12    1
    32    12    13    1
    33    19    14   ar
    34    13     3    1
    35    11     6    1
    36    26    21   ar
    37    33    28   ar
@<TRIPOS>MOLECULE
*****
 33 37 0 0 0
SMALL
GASTEIGER

@<TRIPOS>ATOM
      1 O         143.3412  137.9284  169.0082 O.2     1  UNL1       -0.2699
      2 C         142.7230  139.2201  168.5618 C.2     1  UNL1        0.2491
      3 N         142.8613  139.6645  167.1358 N.am    1  UNL1       -0.2761
      4 C         143.6178  138.8171  166.1562 C.3     1  UNL1        0.0937
      5 C         143.7562  139.2614  164.7303 C.3     1  UNL1        0.0217
      6 C         143.1380  140.5532  164.2839 C.3     1  UNL1        0.0060
      7 C         143.8945  139.7058  163.3042 C.3     1  UNL1        0.0175
      8 C         144.0328  140.1501  161.8783 C.3     1  UNL1        0.0724
      9 N         143.4146  141.4419  161.4319 N.3     1  UNL1       -0.2690
     10 C         142.6581  142.2893  162.4114 C.3     1  UNL1        0.0724
     11 C         142.5198  141.8449  163.8375 C.3     1  UNL1        0.0175
     12 C         142.3815  141.4006  165.2634 C.3     1  UNL1        0.0217
     13 C         142.2431  140.9562  166.6894 C.3     1  UNL1        0.0937
     14 C         141.9665  140.0675  169.5413 C.ar    1  UNL1        0.0567
     15 C         140.4867  139.8845  169.7054 C.ar    1  UNL1        0.0252
     16 C         139.7302  140.7319  170.6850 C.ar    1  UNL1        0.0990
     17 N         140.4534  141.7624  171.5005 N.ar    1  UNL1       -0.2423
     18 C         141.9332  141.9454  171.3365 C.ar    1  UNL1        0.0990
     19 C         142.6897  141.0980  170.3569 C.ar    1  UNL1        0.0252
     20 C         143.5530  141.8862  160.0058 C.3     1  UNL1        0.0992
     21 C         142.7448  143.0438  159.4992 C.ar    1  UNL1       -0.0031
     22 C         143.0592  143.6508  158.1641 C.ar    1  UNL1       -0.0027
     23 C         142.2510  144.8084  157.6574 C.ar    1  UNL1        0.0029
     24 C         141.1282  145.3590  158.4859 C.ar    1  UNL1        0.0375
     25 C         140.8137  144.7519  159.8210 C.ar    1  UNL1        0.1450
     26 C         141.6220  143.5943  160.3277 C.ar    1  UNL1        0.0346
     27 O         139.6910  145.3024  160.6495 O.3     1  UNL1       -0.4535
     28 C         139.3990  144.7182  161.9998 C.ar    1  UNL1        0.1453
     29 C         138.3614  143.6446  162.1441 C.ar    1  UNL1        0.0375
     30 C         138.0695  143.0603  163.4945 C.ar    1  UNL1        0.0031
     31 C         138.8151  143.5497  164.7005 C.ar    1  UNL1        0.0002
     32 C         139.8527  144.6233  164.5562 C.ar    1  UNL1        0.0031
     33 C         140.1446  145.2075  163.2059 C.ar    1  UNL1        0.0375
@<TRIPOS>BOND
     1     1     2    2
     2     2    14    1
     3    14    15   ar
     4    15    16   ar
     5    16    17   ar
     6    17    18   ar
     7    18    19   ar
     8     2     3   am
     9     3     4    1
    10     4     5    1
    11     5     6    1
    12     6     7    1
    13     7     8    1
    14     8     9    1
    15     9    20    1
    16    20    21    1
    17    21    22   ar
    18    22    23   ar
    19    23    24   ar
    20    24    25   ar
    21    25    27    1
    22    27    28    1
    23    28    29   ar
    24    29    30   ar
    25    30    31   ar
    26    31    32   ar
    27    32    33   ar
    28    25    26   ar
    29     9    10    1
    30    10    11    1
    31     6    12    1
    32    12    13    1
    33    19    14   ar
    34    13     3    1
    35    11     6    1
    36    26    21   ar
    37    33    28   ar
@<TRIPOS>MOLECULE
*****
 33 37 0 0 0
SMALL
GASTEIGER

@<TRIPOS>ATOM
      1 O         144.8186  137.7346  155.7168 O.2     1  UNL1       -0.2699
      2 C         143.5081  137.2278  156.2420 C.2     1  UNL1        0.2491
      3 N         142.6308  138.1265  157.0622 N.am    1  UNL1       -0.2761
      4 C         143.0640  139.5319  157.3573 C.3     1  UNL1        0.0937
      5 C         142.1867  140.4306  158.1775 C.3     1  UNL1        0.0217
      6 C         140.8762  139.9238  158.7026 C.3     1  UNL1        0.0060
      7 C         141.3094  141.3293  158.9978 C.3     1  UNL1        0.0175
      8 C         140.4321  142.2279  159.8180 C.3     1  UNL1        0.0724
      9 N         139.1216  141.7211  160.3431 N.3     1  UNL1       -0.2690
     10 C         138.6884  140.3157  160.0480 C.3     1  UNL1        0.0724
     11 C         139.5657  139.4170  159.2278 C.3     1  UNL1        0.0175
     12 C         140.4430  138.5184  158.4076 C.3     1  UNL1        0.0217
     13 C         141.3203  137.6198  157.5874 C.3     1  UNL1        0.0937
     14 C         143.0749  135.8224  155.9469 C.ar    1  UNL1        0.0567
     15 C         143.3234  134.7348  156.9496 C.ar    1  UNL1        0.0252
     16 C         142.8901  133.3294  156.6544 C.ar    1  UNL1        0.0990
     17 N         142.2084  133.0116  155.3567 N.ar    1  UNL1       -0.2423
     18 C         141.9600  134.0992  154.3540 C.ar    1  UNL1        0.0990
     19 C         142.3932  135.5046  154.6491 C.ar    1  UNL1        0.0252
     20 C         138.2443  142.6198  161.1633 C.3     1  UNL1        0.0992
     21 C         138.6474  142.9906  162.5597 C.ar    1  UNL1       -0.0031
     22 C         138.7073  144.4336  162.9649 C.ar    1  UNL1       -0.0027
     23 C         139.1103  144.8044  164.3614 C.ar    1  UNL1        0.0029
     24 C         139.4535  143.7322  165.3527 C.ar    1  UNL1        0.0375
     25 C         139.3936  142.2892  164.9475 C.ar    1  UNL1        0.1450
     26 C         138.9905  141.9184  163.5510 C.ar    1  UNL1        0.0346
     27 O         139.7367  141.2170  165.9387 O.3     1  UNL1       -0.4535
     28 C         140.1527  139.8579  165.4594 C.ar    1  UNL1        0.1453
     29 C         141.5956  139.5770  165.1609 C.ar    1  UNL1        0.0375
     30 C         142.0116  138.2178  164.6816 C.ar    1  UNL1        0.0031
     31 C         140.9847  137.1396  164.5008 C.ar    1  UNL1        0.0002
     32 C         139.5417  137.4204  164.7993 C.ar    1  UNL1        0.0031
     33 C         139.1258  138.7795  165.2786 C.ar    1  UNL1        0.0375
@<TRIPOS>BOND
     1     1     2    2
     2     2    14    1
     3    14    15   ar
     4    15    16   ar
     5    16    17   ar
     6    17    18   ar
     7    18    19   ar
     8     2     3   am
     9     3     4    1
    10     4     5    1
    11     5     6    1
    12     6     7    1
    13     7     8    1
    14     8     9    1
    15     9    20    1
    16    20    21    1
    17    21    22   ar
    18    22    23   ar
    19    23    24   ar
    20    24    25   ar
    21    25    27    1
    22    27    28    1
    23    28    29   ar
    24    29    30   ar
    25    30    31   ar
    26    31    32   ar
    27    32    33   ar
    28    25    26   ar
    29     9    10    1
    30    10    11    1
    31     6    12    1
    32    12    13    1
    33    19    14   ar
    34    13     3    1
    35    11     6    1
    36    26    21   ar
    37    33    28   ar
