@<TRIPOS>MOLECULE
*****
 32 34 0 0 0
SMALL
GASTEIGER

@<TRIPOS>ATOM
      1 C         137.9625  140.2003  162.2845 C.ar    1  UNL1       -0.0064
      2 C         137.8806  140.4394  163.7630 C.ar    1  UNL1       -0.0032
      3 C         137.9785  141.8352  164.3035 C.ar    1  UNL1       -0.0032
      4 C         138.1582  142.9918  163.3655 C.ar    1  UNL1       -0.0064
      5 C         138.2401  142.7527  161.8870 C.ar    1  UNL1       -0.0032
      6 C         138.1422  141.3569  161.3465 C.ar    1  UNL1       -0.0032
      7 C         137.8646  138.8045  161.7440 C.3     1  UNL1        0.0956
      8 N         138.5270  137.6710  162.4695 N.3     1  UNL1       -0.2937
      9 H         138.0941  137.6186  163.3916 H       1  UNL1        0.1236
     10 C         140.0109  137.6857  162.6881 C.3     1  UNL1        0.0702
     11 C         140.5660  137.5548  164.0755 C.3     1  UNL1        0.0344
     12 C         141.6462  138.4851  164.5420 C.3     1  UNL1        0.0735
     13 C         143.9377  138.1110  166.4418 C.3     1  UNL1        0.0173
     14 C         142.7290  138.8900  166.8687 C.3     1  UNL1        0.0575
     15 C         142.6661  139.4820  168.2455 C.3     1  UNL1        0.0160
     16 C         141.4574  140.2610  168.6724 C.3     1  UNL1        0.0028
     17 C         140.3117  140.4481  167.7226 C.3     1  UNL1        0.0174
     18 C         140.3746  139.8561  166.3458 C.3     1  UNL1        0.0720
     19 N         141.5833  139.0771  165.9189 N.3     1  UNL1       -0.2739
     20 C         138.2561  144.3877  163.9061 C.3     1  UNL1        0.0956
     21 N         139.5051  145.1897  163.6902 N.3     1  UNL1       -0.2937
     22 H         139.4856  145.9529  164.3667 H       1  UNL1        0.1236
     23 C         140.8484  144.5341  163.8155 C.3     1  UNL1        0.0702
     24 C         142.0981  145.3483  163.6563 C.3     1  UNL1        0.0344
     25 C         143.3929  144.8550  164.2307 C.3     1  UNL1        0.0735
     26 N         143.9402  143.5228  163.8114 N.3     1  UNL1       -0.2739
     27 C         144.4971  143.3417  162.4304 C.3     1  UNL1        0.0720
     28 C         145.0443  142.0096  162.0111 C.3     1  UNL1        0.0174
     29 C         145.0347  140.8585  162.9728 C.3     1  UNL1        0.0028
     30 C         144.4778  141.0395  164.3537 C.3     1  UNL1        0.0160
     31 C         143.9306  142.3717  164.7731 C.3     1  UNL1        0.0575
     32 C         143.3737  142.5527  166.1540 C.3     1  UNL1        0.0173
@<TRIPOS>BOND
     1    14    13    1
     2    14    15    1
     3    15    16    1
     4    16    17    1
     5    17    18    1
     6    18    19    1
     7    19    12    1
     8    12    11    1
     9    11    10    1
    10    10     8    1
    11     8     7    1
    12     7     1    1
    13     1     2   ar
    14     2     3   ar
    15     3     4   ar
    16     4    20    1
    17    20    21    1
    18    21    23    1
    19    23    24    1
    20    24    25    1
    21    25    26    1
    22    26    27    1
    23    27    28    1
    24    28    29    1
    25    29    30    1
    26    30    31    1
    27    31    32    1
    28     4     5   ar
    29     5     6   ar
    30    19    14    1
    31     6     1   ar
    32    31    26    1
    33     8     9    1
    34    21    22    1
@<TRIPOS>MOLECULE
*****
 32 34 0 0 0
SMALL
GASTEIGER

@<TRIPOS>ATOM
      1 C         143.1598  142.7206  160.9156 C.ar    1  UNL1       -0.0064
      2 C         142.4754  143.5913  159.9039 C.ar    1  UNL1       -0.0032
      3 C         140.9873  143.5146  159.7326 C.ar    1  UNL1       -0.0032
      4 C         140.1834  142.5671  160.5730 C.ar    1  UNL1       -0.0064
      5 C         140.8678  141.6964  161.5846 C.ar    1  UNL1       -0.0032
      6 C         142.3559  141.7732  161.7560 C.ar    1  UNL1       -0.0032
      7 C         144.6480  142.7974  161.0870 C.3     1  UNL1        0.0956
      8 N         145.3788  141.6972  161.7979 N.3     1  UNL1       -0.2937
      9 H         144.8005  140.8607  161.7192 H       1  UNL1        0.1236
     10 C         145.7304  141.8457  163.2485 C.3     1  UNL1        0.0702
     11 C         144.9529  141.0958  164.2893 C.3     1  UNL1        0.0344
     12 C         144.9532  139.5958  164.2897 C.3     1  UNL1        0.0735
     13 C         143.0977  138.7525  166.4911 C.3     1  UNL1        0.0173
     14 C         142.7680  138.4237  165.0651 C.3     1  UNL1        0.0575
     15 C         141.5106  137.6734  164.7399 C.3     1  UNL1        0.0160
     16 C         141.1810  137.3446  163.3139 C.3     1  UNL1        0.0028
     17 C         142.1087  137.7663  162.2133 C.3     1  UNL1        0.0174
     18 C         143.3661  138.5166  162.5386 C.3     1  UNL1        0.0720
     19 N         143.6958  138.8454  163.9645 N.3     1  UNL1       -0.2739
     20 C         138.6952  142.4904  160.4016 C.3     1  UNL1        0.0956
     21 N         137.7887  143.0376  161.4640 N.3     1  UNL1       -0.2937
     22 H         136.8758  143.1748  161.0302 H       1  UNL1        0.1236
     23 C         137.5562  142.2596  162.7253 C.3     1  UNL1        0.0702
     24 C         137.7416  142.9205  164.0590 C.3     1  UNL1        0.0344
     25 C         138.4677  144.2296  164.1529 C.3     1  UNL1        0.0735
     26 N         139.9675  144.2559  164.1687 N.3     1  UNL1       -0.2739
     27 C         140.7231  143.3742  165.1181 C.3     1  UNL1        0.0720
     28 C         142.2228  143.4005  165.1339 C.3     1  UNL1        0.0174
     29 C         142.9668  144.3086  164.2003 C.3     1  UNL1        0.0028
     30 C         142.2111  145.1903  163.2508 C.3     1  UNL1        0.0160
     31 C         140.7115  145.1640  163.2350 C.3     1  UNL1        0.0575
     32 C         139.9558  146.0458  162.2855 C.3     1  UNL1        0.0173
@<TRIPOS>BOND
     1    14    13    1
     2    14    15    1
     3    15    16    1
     4    16    17    1
     5    17    18    1
     6    18    19    1
     7    19    12    1
     8    12    11    1
     9    11    10    1
    10    10     8    1
    11     8     7    1
    12     7     1    1
    13     1     2   ar
    14     2     3   ar
    15     3     4   ar
    16     4    20    1
    17    20    21    1
    18    21    23    1
    19    23    24    1
    20    24    25    1
    21    25    26    1
    22    26    27    1
    23    27    28    1
    24    28    29    1
    25    29    30    1
    26    30    31    1
    27    31    32    1
    28     4     5   ar
    29     5     6   ar
    30    19    14    1
    31     6     1   ar
    32    31    26    1
    33     8     9    1
    34    21    22    1
@<TRIPOS>MOLECULE
*****
 32 34 0 0 0
SMALL
GASTEIGER

@<TRIPOS>ATOM
      1 C         142.0545  140.3004  161.9720 C.ar    1  UNL1       -0.0064
      2 C         141.6624  141.1392  163.1521 C.ar    1  UNL1       -0.0032
      3 C         140.2603  141.6591  163.2698 C.ar    1  UNL1       -0.0032
      4 C         139.2504  141.3401  162.2076 C.ar    1  UNL1       -0.0064
      5 C         139.6426  140.5013  161.0275 C.ar    1  UNL1       -0.0032
      6 C         141.0447  139.9815  160.9098 C.ar    1  UNL1       -0.0032
      7 C         143.4567  139.7805  161.8542 C.3     1  UNL1        0.0956
      8 N         144.4621  140.0855  162.9248 N.3     1  UNL1       -0.2937
      9 H         145.3752  140.1158  162.4712 H       1  UNL1        0.1236
     10 C         144.5967  139.1744  164.1087 C.3     1  UNL1        0.0702
     11 C         143.8233  139.4551  165.3630 C.3     1  UNL1        0.0344
     12 C         142.8161  138.4615  165.8613 C.3     1  UNL1        0.0735
     13 C         141.2034  137.0985  163.7302 C.3     1  UNL1        0.0173
     14 C         140.5436  138.0685  164.6650 C.3     1  UNL1        0.0575
     15 C         139.0774  138.3569  164.5343 C.3     1  UNL1        0.0160
     16 C         138.4176  139.3268  165.4690 C.3     1  UNL1        0.0028
     17 C         139.2239  140.0083  166.5345 C.3     1  UNL1        0.0174
     18 C         140.6900  139.7199  166.6653 C.3     1  UNL1        0.0720
     19 N         141.3499  138.7500  165.7305 N.3     1  UNL1       -0.2739
     20 C         137.8483  141.8600  162.3254 C.3     1  UNL1        0.0956
     21 N         137.5505  143.2941  162.0017 N.3     1  UNL1       -0.2937
     22 H         136.5602  143.3423  161.7621 H       1  UNL1        0.1236
     23 C         137.8009  144.3616  163.0253 C.3     1  UNL1        0.0702
     24 C         138.9979  145.2566  162.8982 C.3     1  UNL1        0.0344
     25 C         139.9444  145.0841  161.7474 C.3     1  UNL1        0.0735
     26 N         141.3722  144.7006  162.0017 N.3     1  UNL1       -0.2739
     27 C         142.0412  145.1063  163.2814 C.3     1  UNL1        0.0720
     28 C         143.4689  144.7230  163.5357 C.3     1  UNL1        0.0174
     29 C         144.2275  143.9338  162.5102 C.3     1  UNL1        0.0028
     30 C         143.5585  143.5281  161.2305 C.3     1  UNL1        0.0160
     31 C         142.1308  143.9115  160.9762 C.3     1  UNL1        0.0575
     32 C         141.4618  143.5058  159.6964 C.3     1  UNL1        0.0173
@<TRIPOS>BOND
     1    14    13    1
     2    14    15    1
     3    15    16    1
     4    16    17    1
     5    17    18    1
     6    18    19    1
     7    19    12    1
     8    12    11    1
     9    11    10    1
    10    10     8    1
    11     8     7    1
    12     7     1    1
    13     1     2   ar
    14     2     3   ar
    15     3     4   ar
    16     4    20    1
    17    20    21    1
    18    21    23    1
    19    23    24    1
    20    24    25    1
    21    25    26    1
    22    26    27    1
    23    27    28    1
    24    28    29    1
    25    29    30    1
    26    30    31    1
    27    31    32    1
    28     4     5   ar
    29     5     6   ar
    30    19    14    1
    31     6     1   ar
    32    31    26    1
    33     8     9    1
    34    21    22    1
@<TRIPOS>MOLECULE
*****
 32 34 0 0 0
SMALL
GASTEIGER

@<TRIPOS>ATOM
      1 C         142.4355  139.2146  165.1781 C.ar    1  UNL1       -0.0064
      2 C         142.4211  140.0977  163.9657 C.ar    1  UNL1       -0.0032
      3 C         141.6114  139.7091  162.7644 C.ar    1  UNL1       -0.0032
      4 C         140.8160  138.4374  162.7754 C.ar    1  UNL1       -0.0064
      5 C         140.8304  137.5543  163.9877 C.ar    1  UNL1       -0.0032
      6 C         141.6401  137.9429  165.1891 C.ar    1  UNL1       -0.0032
      7 C         143.2452  139.6032  166.3795 C.3     1  UNL1        0.0956
      8 N         142.9787  138.9543  167.7054 N.3     1  UNL1       -0.2937
      9 H         142.1913  138.3203  167.5700 H       1  UNL1        0.1236
     10 C         142.6539  139.7988  168.9018 C.3     1  UNL1        0.0702
     11 C         141.3260  139.6535  169.5841 C.3     1  UNL1        0.0344
     12 C         140.1723  140.5189  169.1718 C.3     1  UNL1        0.0735
     13 C         140.8277  142.4996  167.0161 C.3     1  UNL1        0.0173
     14 C         139.8992  141.3574  166.7279 C.3     1  UNL1        0.0575
     15 C         139.2984  141.2054  165.3620 C.3     1  UNL1        0.0160
     16 C         138.3698  140.0632  165.0738 C.3     1  UNL1        0.0028
     17 C         138.0421  139.0728  166.1517 C.3     1  UNL1        0.0174
     18 C         138.6429  139.2247  167.5176 C.3     1  UNL1        0.0720
     19 N         139.5714  140.3670  167.8057 N.3     1  UNL1       -0.2739
     20 C         140.0063  138.0488  161.5739 C.3     1  UNL1        0.0956
     21 N         138.6524  138.6556  161.3538 N.3     1  UNL1       -0.2937
     22 H         138.3761  139.0871  162.2358 H       1  UNL1        0.1236
     23 C         138.4592  139.6912  160.2859 C.3     1  UNL1        0.0702
     24 C         138.1793  141.1154  160.6641 C.3     1  UNL1        0.0344
     25 C         139.3117  142.0351  161.0133 C.3     1  UNL1        0.0735
     26 N         139.1895  142.9642  162.1846 N.3     1  UNL1       -0.2739
     27 C         137.8432  143.2399  162.7859 C.3     1  UNL1        0.0720
     28 C         137.7209  144.1689  163.9571 C.3     1  UNL1        0.0174
     29 C         138.9449  144.8223  164.5271 C.3     1  UNL1        0.0028
     30 C         140.2912  144.5466  163.9258 C.3     1  UNL1        0.0160
     31 C         140.4135  143.6175  162.7546 C.3     1  UNL1        0.0575
     32 C         141.7597  143.3418  162.1533 C.3     1  UNL1        0.0173
@<TRIPOS>BOND
     1    14    13    1
     2    14    15    1
     3    15    16    1
     4    16    17    1
     5    17    18    1
     6    18    19    1
     7    19    12    1
     8    12    11    1
     9    11    10    1
    10    10     8    1
    11     8     7    1
    12     7     1    1
    13     1     2   ar
    14     2     3   ar
    15     3     4   ar
    16     4    20    1
    17    20    21    1
    18    21    23    1
    19    23    24    1
    20    24    25    1
    21    25    26    1
    22    26    27    1
    23    27    28    1
    24    28    29    1
    25    29    30    1
    26    30    31    1
    27    31    32    1
    28     4     5   ar
    29     5     6   ar
    30    19    14    1
    31     6     1   ar
    32    31    26    1
    33     8     9    1
    34    21    22    1
@<TRIPOS>MOLECULE
*****
 32 34 0 0 0
SMALL
GASTEIGER

@<TRIPOS>ATOM
      1 C         138.4082  138.7849  162.9328 C.ar    1  UNL1       -0.0064
      2 C         138.0836  140.1074  163.5617 C.ar    1  UNL1       -0.0032
      3 C         138.2015  140.2807  165.0469 C.ar    1  UNL1       -0.0032
      4 C         138.6439  139.1314  165.9033 C.ar    1  UNL1       -0.0064
      5 C         138.9685  137.8089  165.2745 C.ar    1  UNL1       -0.0032
      6 C         138.8507  137.6356  163.7892 C.ar    1  UNL1       -0.0032
      7 C         138.2903  138.6115  161.4475 C.3     1  UNL1        0.0956
      8 N         137.7685  139.7341  160.6005 N.3     1  UNL1       -0.2937
      9 H         136.8872  139.4146  160.1985 H       1  UNL1        0.1236
     10 C         138.5947  140.2644  159.4664 C.3     1  UNL1        0.0702
     11 C         139.5129  141.4297  159.6882 C.3     1  UNL1        0.0344
     12 C         138.9542  142.8191  159.7741 C.3     1  UNL1        0.0735
     13 C         140.9178  145.0150  160.3419 C.3     1  UNL1        0.0173
     14 C         139.9018  144.6314  161.3765 C.3     1  UNL1        0.0575
     15 C         139.8675  145.3458  162.6950 C.3     1  UNL1        0.0160
     16 C         138.8514  144.9622  163.7296 C.3     1  UNL1        0.0028
     17 C         137.8696  143.8643  163.4458 C.3     1  UNL1        0.0174
     18 C         137.9039  143.1499  162.1273 C.3     1  UNL1        0.0720
     19 N         138.9200  143.5335  161.0926 N.3     1  UNL1       -0.2739
     20 C         138.7618  139.3048  167.3887 C.3     1  UNL1        0.0956
     21 N         139.6176  140.4012  167.9502 N.3     1  UNL1       -0.2937
     22 H         138.9936  141.0360  168.4482 H       1  UNL1        0.1236
     23 C         140.7391  140.0706  168.8900 C.3     1  UNL1        0.0702
     24 C         142.1614  140.2900  168.4670 C.3     1  UNL1        0.0344
     25 C         142.6387  139.7709  167.1432 C.3     1  UNL1        0.0735
     26 N         142.2278  140.4592  165.8753 N.3     1  UNL1       -0.2739
     27 C         141.9060  141.9242  165.8876 C.3     1  UNL1        0.0720
     28 C         141.4952  142.6126  164.6198 C.3     1  UNL1        0.0174
     29 C         141.4062  141.8359  163.3397 C.3     1  UNL1        0.0028
     30 C         141.7280  140.3709  163.3273 C.3     1  UNL1        0.0160
     31 C         142.1388  139.6825  164.5951 C.3     1  UNL1        0.0575
     32 C         142.4606  138.2175  164.5828 C.3     1  UNL1        0.0173
@<TRIPOS>BOND
     1    14    13    1
     2    14    15    1
     3    15    16    1
     4    16    17    1
     5    17    18    1
     6    18    19    1
     7    19    12    1
     8    12    11    1
     9    11    10    1
    10    10     8    1
    11     8     7    1
    12     7     1    1
    13     1     2   ar
    14     2     3   ar
    15     3     4   ar
    16     4    20    1
    17    20    21    1
    18    21    23    1
    19    23    24    1
    20    24    25    1
    21    25    26    1
    22    26    27    1
    23    27    28    1
    24    28    29    1
    25    29    30    1
    26    30    31    1
    27    31    32    1
    28     4     5   ar
    29     5     6   ar
    30    19    14    1
    31     6     1   ar
    32    31    26    1
    33     8     9    1
    34    21    22    1
@<TRIPOS>MOLECULE
*****
 32 34 0 0 0
SMALL
GASTEIGER

@<TRIPOS>ATOM
      1 C         142.4117  139.5668  162.6688 C.ar    1  UNL1       -0.0064
      2 C         142.9460  138.9086  163.9062 C.ar    1  UNL1       -0.0032
      3 C         142.7265  139.5431  165.2476 C.ar    1  UNL1       -0.0032
      4 C         141.9728  140.8358  165.3515 C.ar    1  UNL1       -0.0064
      5 C         141.4385  141.4940  164.1141 C.ar    1  UNL1       -0.0032
      6 C         141.6579  140.8595  162.7728 C.ar    1  UNL1       -0.0032
      7 C         142.6311  138.9324  161.3274 C.3     1  UNL1        0.0956
      8 N         143.8139  139.3290  160.4946 N.3     1  UNL1       -0.2937
      9 H         144.5849  139.4992  161.1404 H       1  UNL1        0.1236
     10 C         143.7302  140.5264  159.5951 C.3     1  UNL1        0.0702
     11 C         143.8019  141.9074  160.1761 C.3     1  UNL1        0.0344
     12 C         144.8512  142.2386  161.1956 C.3     1  UNL1        0.0735
     13 C         145.8129  141.3287  163.8877 C.3     1  UNL1        0.0173
     14 C         144.9644  142.5602  163.7712 C.3     1  UNL1        0.0575
     15 C         144.5969  143.3367  165.0008 C.3     1  UNL1        0.0160
     16 C         143.7484  144.5682  164.8843 C.3     1  UNL1        0.0028
     17 C         143.2676  145.0232  163.5383 C.3     1  UNL1        0.0174
     18 C         143.6352  144.2467  162.3088 C.3     1  UNL1        0.0720
     19 N         144.4836  143.0152  162.4252 N.3     1  UNL1       -0.2739
     20 C         141.7534  141.4702  166.6930 C.3     1  UNL1        0.0956
     21 N         140.4198  141.3521  167.3693 N.3     1  UNL1       -0.2937
     22 H         139.7397  141.8081  166.7611 H       1  UNL1        0.1236
     23 C         139.8646  139.9988  167.7017 C.3     1  UNL1        0.0702
     24 C         138.7660  139.4128  166.8653 C.3     1  UNL1        0.0344
     25 C         138.3117  140.1189  165.6223 C.3     1  UNL1        0.0735
     26 N         138.5156  139.4807  164.2802 N.3     1  UNL1       -0.2739
     27 C         139.2189  138.1598  164.1769 C.3     1  UNL1        0.0720
     28 C         139.4229  137.5216  162.8349 C.3     1  UNL1        0.0174
     29 C         138.9235  138.2043  161.5961 C.3     1  UNL1        0.0028
     30 C         138.2203  139.5252  161.6994 C.3     1  UNL1        0.0160
     31 C         138.0163  140.1634  163.0415 C.3     1  UNL1        0.0575
     32 C         137.3131  141.4843  163.1447 C.3     1  UNL1        0.0173
@<TRIPOS>BOND
     1    14    13    1
     2    14    15    1
     3    15    16    1
     4    16    17    1
     5    17    18    1
     6    18    19    1
     7    19    12    1
     8    12    11    1
     9    11    10    1
    10    10     8    1
    11     8     7    1
    12     7     1    1
    13     1     2   ar
    14     2     3   ar
    15     3     4   ar
    16     4    20    1
    17    20    21    1
    18    21    23    1
    19    23    24    1
    20    24    25    1
    21    25    26    1
    22    26    27    1
    23    27    28    1
    24    28    29    1
    25    29    30    1
    26    30    31    1
    27    31    32    1
    28     4     5   ar
    29     5     6   ar
    30    19    14    1
    31     6     1   ar
    32    31    26    1
    33     8     9    1
    34    21    22    1
@<TRIPOS>MOLECULE
*****
 32 34 0 0 0
SMALL
GASTEIGER

@<TRIPOS>ATOM
      1 C         137.8434  141.0743  161.6931 C.ar    1  UNL1       -0.0064
      2 C         138.7799  142.0065  160.9833 C.ar    1  UNL1       -0.0032
      3 C         139.2039  143.2869  161.6396 C.ar    1  UNL1       -0.0032
      4 C         138.6913  143.6351  163.0057 C.ar    1  UNL1       -0.0064
      5 C         137.7548  142.7028  163.7154 C.ar    1  UNL1       -0.0032
      6 C         137.3308  141.4224  163.0591 C.ar    1  UNL1       -0.0032
      7 C         137.4194  139.7938  161.0368 C.3     1  UNL1        0.0956
      8 N         138.0513  138.4963  161.4458 N.3     1  UNL1       -0.2937
      9 H         138.1039  138.5026  162.4644 H       1  UNL1        0.1236
     10 C         139.4183  138.1368  160.9439 C.3     1  UNL1        0.0702
     11 C         140.5380  137.9082  161.9156 C.3     1  UNL1        0.0344
     12 C         140.9108  138.9804  162.8960 C.3     1  UNL1        0.0735
     13 C         141.2392  141.4552  164.5597 C.3     1  UNL1        0.0173
     14 C         140.2946  140.3760  164.9990 C.3     1  UNL1        0.0575
     15 C         139.5142  140.5342  166.2702 C.3     1  UNL1        0.0160
     16 C         138.5696  139.4551  166.7096 C.3     1  UNL1        0.0028
     17 C         138.4053  138.2177  165.8778 C.3     1  UNL1        0.0174
     18 C         139.1858  138.0595  164.6066 C.3     1  UNL1        0.0720
     19 N         140.1304  139.1387  164.1672 N.3     1  UNL1       -0.2739
     20 C         139.1153  144.9156  163.6620 C.3     1  UNL1        0.0956
     21 N         140.4836  145.0318  164.2654 N.3     1  UNL1       -0.2937
     22 H         140.6901  144.1334  164.7021 H       1  UNL1        0.1236
     23 C         141.6594  145.3722  163.3983 C.3     1  UNL1        0.0702
     24 C         143.0531  145.1181  163.8910 C.3     1  UNL1        0.0344
     25 C         144.0718  144.5050  162.9765 C.3     1  UNL1        0.0735
     26 N         144.2717  143.0184  162.9657 N.3     1  UNL1       -0.2739
     27 C         145.0116  142.3530  164.0881 C.3     1  UNL1        0.0720
     28 C         145.2116  140.8665  164.0774 C.3     1  UNL1        0.0174
     29 C         144.6717  140.0453  162.9442 C.3     1  UNL1        0.0028
     30 C         143.9319  140.7107  161.8217 C.3     1  UNL1        0.0160
     31 C         143.7319  142.1972  161.8324 C.3     1  UNL1        0.0575
     32 C         142.9921  142.8626  160.7100 C.3     1  UNL1        0.0173
@<TRIPOS>BOND
     1    14    13    1
     2    14    15    1
     3    15    16    1
     4    16    17    1
     5    17    18    1
     6    18    19    1
     7    19    12    1
     8    12    11    1
     9    11    10    1
    10    10     8    1
    11     8     7    1
    12     7     1    1
    13     1     2   ar
    14     2     3   ar
    15     3     4   ar
    16     4    20    1
    17    20    21    1
    18    21    23    1
    19    23    24    1
    20    24    25    1
    21    25    26    1
    22    26    27    1
    23    27    28    1
    24    28    29    1
    25    29    30    1
    26    30    31    1
    27    31    32    1
    28     4     5   ar
    29     5     6   ar
    30    19    14    1
    31     6     1   ar
    32    31    26    1
    33     8     9    1
    34    21    22    1
@<TRIPOS>MOLECULE
*****
 32 34 0 0 0
SMALL
GASTEIGER

@<TRIPOS>ATOM
      1 C         138.6961  139.1314  165.8390 C.ar    1  UNL1       -0.0064
      2 C         139.0357  137.7984  165.2408 C.ar    1  UNL1       -0.0032
      3 C         138.8973  137.5825  163.7630 C.ar    1  UNL1       -0.0032
      4 C         138.4193  138.6995  162.8833 C.ar    1  UNL1       -0.0064
      5 C         138.0797  140.0324  163.4815 C.ar    1  UNL1       -0.0032
      6 C         138.2181  140.2484  164.9594 C.ar    1  UNL1       -0.0032
      7 C         138.8344  139.3473  167.3170 C.3     1  UNL1        0.0956
      8 N         140.0835  139.9663  167.8708 N.3     1  UNL1       -0.2937
      9 H         140.3059  139.4627  168.7295 H       1  UNL1        0.1236
     10 C         140.1110  141.4279  168.2065 C.3     1  UNL1        0.0702
     11 C         140.8879  142.3805  167.3467 C.3     1  UNL1        0.0344
     12 C         142.2223  141.9749  166.7946 C.3     1  UNL1        0.0735
     13 C         141.3649  142.0260  163.9202 C.3     1  UNL1        0.0173
     14 C         141.9131  140.7637  164.5170 C.3     1  UNL1        0.0575
     15 C         142.0326  139.5271  163.6766 C.3     1  UNL1        0.0160
     16 C         142.5808  138.2648  164.2734 C.3     1  UNL1        0.0028
     17 C         143.0094  138.2392  165.7106 C.3     1  UNL1        0.0174
     18 C         142.8899  139.4759  166.5510 C.3     1  UNL1        0.0720
     19 N         142.3418  140.7382  165.9542 N.3     1  UNL1       -0.2739
     20 C         138.2809  138.4835  161.4053 C.3     1  UNL1        0.0956
     21 N         137.5229  139.4727  160.5705 N.3     1  UNL1       -0.2937
     22 H         137.0224  140.0817  161.2177 H       1  UNL1        0.1236
     23 C         138.2570  140.3661  159.6150 C.3     1  UNL1        0.0702
     24 C         139.1443  141.4563  160.1386 C.3     1  UNL1        0.0344
     25 C         138.6102  142.8496  160.2911 C.3     1  UNL1        0.0735
     26 N         138.7413  143.5636  161.6038 N.3     1  UNL1       -0.2739
     27 C         137.7579  143.2963  162.7045 C.3     1  UNL1        0.0720
     28 C         137.8890  144.0102  164.0171 C.3     1  UNL1        0.0174
     29 C         139.0035  144.9915  164.2291 C.3     1  UNL1        0.0028
     30 C         139.9869  145.2589  163.1284 C.3     1  UNL1        0.0160
     31 C         139.8558  144.5449  161.8158 C.3     1  UNL1        0.0575
     32 C         140.8392  144.8122  160.7151 C.3     1  UNL1        0.0173
@<TRIPOS>BOND
     1    14    13    1
     2    14    15    1
     3    15    16    1
     4    16    17    1
     5    17    18    1
     6    18    19    1
     7    19    12    1
     8    12    11    1
     9    11    10    1
    10    10     8    1
    11     8     7    1
    12     7     1    1
    13     1     2   ar
    14     2     3   ar
    15     3     4   ar
    16     4    20    1
    17    20    21    1
    18    21    23    1
    19    23    24    1
    20    24    25    1
    21    25    26    1
    22    26    27    1
    23    27    28    1
    24    28    29    1
    25    29    30    1
    26    30    31    1
    27    31    32    1
    28     4     5   ar
    29     5     6   ar
    30    19    14    1
    31     6     1   ar
    32    31    26    1
    33     8     9    1
    34    21    22    1
@<TRIPOS>MOLECULE
*****
 32 34 0 0 0
SMALL
GASTEIGER

@<TRIPOS>ATOM
      1 C         143.8812  139.0130  162.1377 C.ar    1  UNL1       -0.0064
      2 C         144.5637  139.0018  163.4733 C.ar    1  UNL1       -0.0032
      3 C         145.0116  140.2902  164.0974 C.ar    1  UNL1       -0.0032
      4 C         144.7771  141.5897  163.3858 C.ar    1  UNL1       -0.0064
      5 C         144.0946  141.6008  162.0501 C.ar    1  UNL1       -0.0032
      6 C         143.6467  140.3125  161.4261 C.ar    1  UNL1       -0.0032
      7 C         143.4332  137.7246  161.5135 C.3     1  UNL1        0.0956
      8 N         141.9699  137.4432  161.3423 N.3     1  UNL1       -0.2937
      9 H         141.6717  137.9364  160.5008 H       1  UNL1        0.1236
     10 C         141.0029  137.8141  162.4273 C.3     1  UNL1        0.0702
     11 C         141.1097  137.1721  163.7788 C.3     1  UNL1        0.0344
     12 C         140.1910  137.5971  164.8857 C.3     1  UNL1        0.0735
     13 C         138.0068  138.8358  166.5274 C.3     1  UNL1        0.0173
     14 C         139.3456  139.5055  166.4328 C.3     1  UNL1        0.0575
     15 C         139.5924  140.7945  167.1591 C.3     1  UNL1        0.0160
     16 C         140.9313  141.4642  167.0645 C.3     1  UNL1        0.0028
     17 C         142.0234  140.8449  166.2436 C.3     1  UNL1        0.0174
     18 C         141.7766  139.5559  165.5174 C.3     1  UNL1        0.0720
     19 N         140.4377  138.8862  165.6120 N.3     1  UNL1       -0.2739
     20 C         145.2251  142.8780  164.0100 C.3     1  UNL1        0.0956
     21 N         144.2094  143.8664  164.5012 N.3     1  UNL1       -0.2937
     22 H         144.6493  144.3888  165.2588 H       1  UNL1        0.1236
     23 C         143.6297  144.8780  163.5573 C.3     1  UNL1        0.0702
     24 C         142.1637  144.8547  163.2407 C.3     1  UNL1        0.0344
     25 C         141.1702  144.5178  164.3127 C.3     1  UNL1        0.0735
     26 N         140.1349  143.4597  164.0702 N.3     1  UNL1       -0.2739
     27 C         140.4740  142.2538  163.2451 C.3     1  UNL1        0.0720
     28 C         139.4388  141.1957  163.0025 C.3     1  UNL1        0.0174
     29 C         138.0645  141.3437  163.5850 C.3     1  UNL1        0.0028
     30 C         137.7254  142.5496  164.4100 C.3     1  UNL1        0.0160
     31 C         138.7606  143.6076  164.6526 C.3     1  UNL1        0.0575
     32 C         138.4214  144.8136  165.4776 C.3     1  UNL1        0.0173
@<TRIPOS>BOND
     1    14    13    1
     2    14    15    1
     3    15    16    1
     4    16    17    1
     5    17    18    1
     6    18    19    1
     7    19    12    1
     8    12    11    1
     9    11    10    1
    10    10     8    1
    11     8     7    1
    12     7     1    1
    13     1     2   ar
    14     2     3   ar
    15     3     4   ar
    16     4    20    1
    17    20    21    1
    18    21    23    1
    19    23    24    1
    20    24    25    1
    21    25    26    1
    22    26    27    1
    23    27    28    1
    24    28    29    1
    25    29    30    1
    26    30    31    1
    27    31    32    1
    28     4     5   ar
    29     5     6   ar
    30    19    14    1
    31     6     1   ar
    32    31    26    1
    33     8     9    1
    34    21    22    1
