@<TRIPOS>MOLECULE
*****
 31 33 0 0 0
SMALL
GASTEIGER

@<TRIPOS>ATOM
      1 N         138.4779  138.8295  162.9546 N.3     1  UNL1       -0.2724
      2 C         138.9326  137.6391  163.7461 C.3     1  UNL1        0.0758
      3 C         138.9672  137.7034  165.2443 C.3     1  UNL1        0.0609
      4 C         138.5472  138.9579  165.9511 C.3     1  UNL1        0.1687
      5 C         138.0926  140.1483  165.1597 C.3     1  UNL1        0.0609
      6 C         138.0579  140.0841  163.6615 C.3     1  UNL1        0.0758
      7 C         138.4433  138.7653  161.4564 C.3     1  UNL1        0.0721
      8 N         139.9924  142.2169  159.0200 N.3     1  UNL1       -0.2727
      9 C         140.8406  141.6254  160.1065 C.3     1  UNL1        0.0721
     10 C         140.3243  140.4749  160.9186 C.3     1  UNL1        0.0188
     11 C         138.9597  139.9159  160.6443 C.3     1  UNL1        0.0188
     12 C         138.1114  140.5074  159.5578 C.3     1  UNL1        0.0188
     13 C         138.6278  141.6579  158.7456 C.3     1  UNL1        0.0721
     14 C         140.5088  143.3675  158.2078 C.3     1  UNL1        0.0727
     15 C         140.2460  144.7761  158.6511 C.3     1  UNL1        0.0290
     16 C         141.0157  145.3567  159.8002 C.3     1  UNL1        0.1110
     17 C         140.3641  145.4987  161.1439 C.2     1  UNL1        0.3171
     18 O         139.2473  146.4815  161.3358 O.2     1  UNL1       -0.2501
     19 C         141.6085  145.2834  163.4144 C.3     1  UNL1        0.2556
     20 O         140.8294  144.6578  162.2956 O.3     1  UNL1       -0.4444
     21 O         138.5818  139.0221  167.4494 O.3     1  UNL1       -0.4790
     22 C         139.4908  139.9969  168.1375 C.ar    1  UNL1        0.1392
     23 C         139.1771  140.4614  169.5288 C.ar    1  UNL1        0.0367
     24 C         140.0860  141.4362  170.2169 C.ar    1  UNL1        0.0021
     25 C         141.3088  141.9466  169.5137 C.ar    1  UNL1        0.0177
     26 C         141.6225  141.4821  168.1224 C.ar    1  UNL1        0.0590
     27 CL        142.8452  141.9924  167.4191 Cl      1  UNL1       -0.0824
     28 C         140.7135  140.5072  167.4342 C.ar    1  UNL1        0.0480
     29 C         142.2177  142.9214  170.2018 C.3     1  UNL1        0.1644
     30 O         142.4874  142.7867  171.6712 O.3     1  UNL1       -0.3772
     31 H         141.6695  142.9501  172.1664 H       1  UNL1        0.2109
@<TRIPOS>BOND
     1    19    20    1
     2    20    17    1
     3    17    18    2
     4    17    16    1
     5    16    15    1
     6    15    14    1
     7    14     8    1
     8     8     9    1
     9     9    10    1
    10    10    11    1
    11    11     7    1
    12     7     1    1
    13     1     2    1
    14     2     3    1
    15     3     4    1
    16     4    21    1
    17    21    22    1
    18    22    23   ar
    19    23    24   ar
    20    24    25   ar
    21    25    29    1
    22    29    30    1
    23    25    26   ar
    24    26    27    1
    25    26    28   ar
    26     4     5    1
    27     5     6    1
    28    11    12    1
    29    12    13    1
    30    13     8    1
    31     6     1    1
    32    28    22   ar
    33    30    31    1
@<TRIPOS>MOLECULE
*****
 31 33 0 0 0
SMALL
GASTEIGER

@<TRIPOS>ATOM
      1 N         138.6679  138.7561  162.9358 N.3     1  UNL1       -0.2724
      2 C         138.1962  140.0323  163.5674 C.3     1  UNL1        0.0758
      3 C         138.0927  140.1368  165.0601 C.3     1  UNL1        0.0609
      4 C         138.4609  138.9652  165.9213 C.3     1  UNL1        0.1687
      5 C         138.9326  137.6890  165.2898 C.3     1  UNL1        0.0609
      6 C         139.0361  137.5844  163.7970 C.3     1  UNL1        0.0758
      7 C         138.7714  138.6515  161.4430 C.3     1  UNL1        0.0721
      8 N         142.4560  140.1422  159.3331 N.3     1  UNL1       -0.2727
      9 C         142.5298  138.9180  160.1967 C.3     1  UNL1        0.0721
     10 C         141.3016  138.4211  160.9000 C.3     1  UNL1        0.0188
     11 C         139.9996  139.1484  160.7397 C.3     1  UNL1        0.0188
     12 C         139.9257  140.3726  159.8761 C.3     1  UNL1        0.0188
     13 C         141.1539  140.8695  159.1728 C.3     1  UNL1        0.0721
     14 C         143.6841  140.6391  158.6298 C.3     1  UNL1        0.0727
     15 C         144.1028  142.0723  158.7739 C.3     1  UNL1        0.0290
     16 C         144.7181  142.5486  160.0563 C.3     1  UNL1        0.1110
     17 C         143.8513  142.8101  161.2523 C.2     1  UNL1        0.3171
     18 O         143.2538  144.1697  161.4626 O.2     1  UNL1       -0.2501
     19 C         144.6792  140.7642  162.6230 C.3     1  UNL1        0.2556
     20 O         143.5822  141.7119  162.2380 O.3     1  UNL1       -0.4444
     21 O         138.3574  139.0698  167.4141 O.3     1  UNL1       -0.4790
     22 C         139.3400  139.9077  168.1772 C.ar    1  UNL1        0.1392
     23 C         139.0459  140.3056  169.5932 C.ar    1  UNL1        0.0367
     24 C         140.0285  141.1436  170.3563 C.ar    1  UNL1        0.0021
     25 C         141.3053  141.5835  169.7033 C.ar    1  UNL1        0.0177
     26 C         141.5994  141.1856  168.2873 C.ar    1  UNL1        0.0590
     27 CL        142.8761  141.6255  167.6343 Cl      1  UNL1       -0.0824
     28 C         140.6167  140.3476  167.5242 C.ar    1  UNL1        0.0480
     29 C         142.2880  142.4215  170.4664 C.3     1  UNL1        0.1644
     30 O         142.2343  142.4624  171.9649 O.3     1  UNL1       -0.3772
     31 H         141.4076  142.8840  172.2474 H       1  UNL1        0.2109
@<TRIPOS>BOND
     1    19    20    1
     2    20    17    1
     3    17    18    2
     4    17    16    1
     5    16    15    1
     6    15    14    1
     7    14     8    1
     8     8     9    1
     9     9    10    1
    10    10    11    1
    11    11     7    1
    12     7     1    1
    13     1     2    1
    14     2     3    1
    15     3     4    1
    16     4    21    1
    17    21    22    1
    18    22    23   ar
    19    23    24   ar
    20    24    25   ar
    21    25    29    1
    22    29    30    1
    23    25    26   ar
    24    26    27    1
    25    26    28   ar
    26     4     5    1
    27     5     6    1
    28    11    12    1
    29    12    13    1
    30    13     8    1
    31     6     1    1
    32    28    22   ar
    33    30    31    1
@<TRIPOS>MOLECULE
*****
 31 33 0 0 0
SMALL
GASTEIGER

@<TRIPOS>ATOM
      1 N         138.8035  143.8228  162.1047 N.3     1  UNL1       -0.2724
      2 C         139.2721  143.0925  160.8811 C.3     1  UNL1        0.0758
      3 C         140.1875  143.7724  159.9065 C.3     1  UNL1        0.0609
      4 C         140.6342  145.1825  160.1554 C.3     1  UNL1        0.1687
      5 C         140.1656  145.9128  161.3789 C.3     1  UNL1        0.0609
      6 C         139.2502  145.2330  162.3536 C.3     1  UNL1        0.0758
      7 C         137.8881  143.1430  163.0793 C.3     1  UNL1        0.0721
      8 N         139.5917  141.0325  166.6701 N.3     1  UNL1       -0.2727
      9 C         139.9485  142.4646  166.4026 C.3     1  UNL1        0.0721
     10 C         139.3807  143.1681  165.2057 C.3     1  UNL1        0.0188
     11 C         138.4560  142.4395  164.2763 C.3     1  UNL1        0.0188
     12 C         138.0992  141.0073  164.5437 C.3     1  UNL1        0.0188
     13 C         138.6670  140.3038  165.7406 C.3     1  UNL1        0.0721
     14 C         140.1596  140.3289  167.8670 C.3     1  UNL1        0.0727
     15 C         139.4040  140.3245  169.1628 C.3     1  UNL1        0.0290
     16 C         139.9777  141.0092  170.3678 C.3     1  UNL1        0.1110
     17 C         140.0817  142.5052  170.4018 C.2     1  UNL1        0.3171
     18 O         139.1358  143.3037  171.2489 O.2     1  UNL1       -0.2501
     19 C         142.5503  142.7162  169.6197 C.3     1  UNL1        0.2556
     20 O         141.1317  143.2027  169.5888 O.3     1  UNL1       -0.4444
     21 O         141.5496  145.8623  159.1807 O.3     1  UNL1       -0.4790
     22 C         141.2821  145.7659  157.7079 C.ar    1  UNL1        0.1392
     23 C         142.2844  145.1103  156.8049 C.ar    1  UNL1        0.0367
     24 C         142.0169  145.0139  155.3321 C.ar    1  UNL1        0.0021
     25 C         140.7469  145.5730  154.7623 C.ar    1  UNL1        0.0177
     26 C         139.7445  146.2286  155.6654 C.ar    1  UNL1        0.0590
     27 CL        138.4746  146.7877  155.0957 Cl      1  UNL1       -0.0824
     28 C         140.0121  146.3250  157.1382 C.ar    1  UNL1        0.0480
     29 C         140.4793  145.4766  153.2896 C.3     1  UNL1        0.1644
     30 O         140.6815  146.6751  152.4105 O.3     1  UNL1       -0.3772
     31 H         140.0390  147.3620  152.6476 H       1  UNL1        0.2109
@<TRIPOS>BOND
     1    19    20    1
     2    20    17    1
     3    17    18    2
     4    17    16    1
     5    16    15    1
     6    15    14    1
     7    14     8    1
     8     8     9    1
     9     9    10    1
    10    10    11    1
    11    11     7    1
    12     7     1    1
    13     1     2    1
    14     2     3    1
    15     3     4    1
    16     4    21    1
    17    21    22    1
    18    22    23   ar
    19    23    24   ar
    20    24    25   ar
    21    25    29    1
    22    29    30    1
    23    25    26   ar
    24    26    27    1
    25    26    28   ar
    26     4     5    1
    27     5     6    1
    28    11    12    1
    29    12    13    1
    30    13     8    1
    31     6     1    1
    32    28    22   ar
    33    30    31    1
@<TRIPOS>MOLECULE
*****
 31 33 0 0 0
SMALL
GASTEIGER

@<TRIPOS>ATOM
      1 N         143.5507  139.2337  162.6722 N.3     1  UNL1       -0.2724
      2 C         142.3659  138.5659  163.3051 C.3     1  UNL1        0.0758
      3 C         142.3396  138.3319  164.7865 C.3     1  UNL1        0.0609
      4 C         143.4980  138.7656  165.6351 C.3     1  UNL1        0.1687
      5 C         144.6827  139.4334  165.0022 C.3     1  UNL1        0.0609
      6 C         144.7091  139.6674  163.5208 C.3     1  UNL1        0.0758
      7 C         143.5771  139.4677  161.1909 C.3     1  UNL1        0.0721
      8 N         141.4999  143.0563  159.4425 N.3     1  UNL1       -0.2727
      9 C         140.7068  141.8399  159.8184 C.3     1  UNL1        0.0721
     10 C         141.3992  140.6437  160.4012 C.3     1  UNL1        0.0188
     11 C         142.8847  140.6639  160.6081 C.3     1  UNL1        0.0188
     12 C         143.6778  141.8803  160.2322 C.3     1  UNL1        0.0188
     13 C         142.9854  143.0765  159.6494 C.3     1  UNL1        0.0721
     14 C         140.8075  144.2525  158.8597 C.3     1  UNL1        0.0727
     15 C         140.3300  145.3545  159.7584 C.3     1  UNL1        0.0290
     16 C         140.6912  145.3446  161.2142 C.3     1  UNL1        0.1110
     17 C         139.7423  144.7604  162.2184 C.2     1  UNL1        0.3171
     18 O         138.4947  144.0674  161.7567 O.2     1  UNL1       -0.2501
     19 C         138.9287  144.7715  164.6857 C.3     1  UNL1        0.2556
     20 O         140.0411  144.8693  163.6843 O.3     1  UNL1       -0.4444
     21 O         143.4716  138.5316  167.1165 O.3     1  UNL1       -0.4790
     22 C         142.6527  139.4232  168.0022 C.ar    1  UNL1        0.1392
     23 C         142.4986  139.0971  169.4582 C.ar    1  UNL1        0.0367
     24 C         141.6797  139.9887  170.3438 C.ar    1  UNL1        0.0021
     25 C         141.0148  141.2064  169.7735 C.ar    1  UNL1        0.0177
     26 C         141.1689  141.5325  168.3175 C.ar    1  UNL1        0.0590
     27 CL        140.5041  142.7501  167.7472 Cl      1  UNL1       -0.0824
     28 C         141.9879  140.6408  167.4318 C.ar    1  UNL1        0.0480
     29 C         140.1959  142.0980  170.6592 C.3     1  UNL1        0.1644
     30 O         140.5275  142.2158  172.1173 O.3     1  UNL1       -0.3772
     31 H         140.3704  141.3643  172.5545 H       1  UNL1        0.2109
@<TRIPOS>BOND
     1    19    20    1
     2    20    17    1
     3    17    18    2
     4    17    16    1
     5    16    15    1
     6    15    14    1
     7    14     8    1
     8     8     9    1
     9     9    10    1
    10    10    11    1
    11    11     7    1
    12     7     1    1
    13     1     2    1
    14     2     3    1
    15     3     4    1
    16     4    21    1
    17    21    22    1
    18    22    23   ar
    19    23    24   ar
    20    24    25   ar
    21    25    29    1
    22    29    30    1
    23    25    26   ar
    24    26    27    1
    25    26    28   ar
    26     4     5    1
    27     5     6    1
    28    11    12    1
    29    12    13    1
    30    13     8    1
    31     6     1    1
    32    28    22   ar
    33    30    31    1
@<TRIPOS>MOLECULE
*****
 31 33 0 0 0
SMALL
GASTEIGER

@<TRIPOS>ATOM
      1 N         143.3198  140.3679  165.9971 N.3     1  UNL1       -0.2724
      2 C         143.8347  139.8865  164.6730 C.3     1  UNL1        0.0758
      3 C         144.1540  140.8728  163.5889 C.3     1  UNL1        0.0609
      4 C         143.9583  142.3405  163.8289 C.3     1  UNL1        0.1687
      5 C         143.4434  142.8220  165.1529 C.3     1  UNL1        0.0609
      6 C         143.1241  141.8356  166.2370 C.3     1  UNL1        0.0758
      7 C         143.0005  139.3817  167.0812 C.3     1  UNL1        0.0721
      8 N         139.2881  139.8986  169.5714 N.3     1  UNL1       -0.2727
      9 C         139.1863  139.8421  168.0760 C.3     1  UNL1        0.0721
     10 C         140.4237  139.6698  167.2459 C.3     1  UNL1        0.0188
     11 C         141.7630  139.5540  167.9112 C.3     1  UNL1        0.0188
     12 C         141.8649  139.6105  169.4067 C.3     1  UNL1        0.0188
     13 C         140.6275  139.7828  170.2368 C.3     1  UNL1        0.0721
     14 C         138.0507  140.0709  170.4015 C.3     1  UNL1        0.0727
     15 C         136.9697  139.0318  170.3611 C.3     1  UNL1        0.0290
     16 C         136.1372  138.7678  171.5805 C.3     1  UNL1        0.1110
     17 C         136.0861  137.3892  172.1697 C.2     1  UNL1        0.3171
     18 O         137.2288  136.4407  171.9591 O.2     1  UNL1       -0.2501
     19 C         135.0689  136.4676  174.3756 C.3     1  UNL1        0.2556
     20 O         134.8922  136.9593  172.9696 O.3     1  UNL1       -0.4444
     21 O         144.2776  143.3268  162.7447 O.3     1  UNL1       -0.4790
     22 C         143.2345  143.6894  161.7296 C.ar    1  UNL1        0.1392
     23 C         143.2966  143.1060  160.3492 C.ar    1  UNL1        0.0367
     24 C         142.2534  143.4685  159.3341 C.ar    1  UNL1        0.0021
     25 C         141.1482  144.4147  159.6995 C.ar    1  UNL1        0.0177
     26 C         141.0862  144.9981  161.0800 C.ar    1  UNL1        0.0590
     27 CL        139.9811  145.9442  161.4454 Cl      1  UNL1       -0.0824
     28 C         142.1294  144.6355  162.0951 C.ar    1  UNL1        0.0480
     29 C         140.1051  144.7772  158.6845 C.3     1  UNL1        0.1644
     30 O         140.1554  146.1116  158.0010 O.3     1  UNL1       -0.3772
     31 H         140.0000  146.8141  158.6516 H       1  UNL1        0.2109
@<TRIPOS>BOND
     1    19    20    1
     2    20    17    1
     3    17    18    2
     4    17    16    1
     5    16    15    1
     6    15    14    1
     7    14     8    1
     8     8     9    1
     9     9    10    1
    10    10    11    1
    11    11     7    1
    12     7     1    1
    13     1     2    1
    14     2     3    1
    15     3     4    1
    16     4    21    1
    17    21    22    1
    18    22    23   ar
    19    23    24   ar
    20    24    25   ar
    21    25    29    1
    22    29    30    1
    23    25    26   ar
    24    26    27    1
    25    26    28   ar
    26     4     5    1
    27     5     6    1
    28    11    12    1
    29    12    13    1
    30    13     8    1
    31     6     1    1
    32    28    22   ar
    33    30    31    1
@<TRIPOS>MOLECULE
*****
 31 33 0 0 0
SMALL
GASTEIGER

@<TRIPOS>ATOM
      1 N         140.7919  138.6344  158.5785 N.3     1  UNL1       -0.2724
      2 C         142.2283  138.2058  158.6347 C.3     1  UNL1        0.0758
      3 C         142.7597  137.2296  157.6274 C.3     1  UNL1        0.0609
      4 C         141.8546  136.6818  156.5640 C.3     1  UNL1        0.1687
      5 C         140.4182  137.1103  156.5078 C.3     1  UNL1        0.0609
      6 C         139.8869  138.0866  157.5151 C.3     1  UNL1        0.0758
      7 C         140.2606  139.6106  159.5858 C.3     1  UNL1        0.0721
      8 N         139.3118  138.2391  163.7654 N.3     1  UNL1       -0.2727
      9 C         140.6239  138.9052  163.4743 C.3     1  UNL1        0.0721
     10 C         140.9401  139.3624  162.0811 C.3     1  UNL1        0.0188
     11 C         139.9443  139.1534  160.9790 C.3     1  UNL1        0.0188
     12 C         138.6323  138.4873  161.2700 C.3     1  UNL1        0.0188
     13 C         138.3161  138.0301  162.6632 C.3     1  UNL1        0.0721
     14 C         138.9956  137.7819  165.1585 C.3     1  UNL1        0.0727
     15 C         138.2872  138.7026  166.1074 C.3     1  UNL1        0.0290
     16 C         139.0134  139.8748  166.6978 C.3     1  UNL1        0.1110
     17 C         139.4924  139.8222  168.1183 C.2     1  UNL1        0.3171
     18 O         138.5121  139.6059  169.2329 O.2     1  UNL1       -0.2501
     19 C         141.4524  139.7805  169.8232 C.3     1  UNL1        0.2556
     20 O         140.9517  139.9860  168.4243 O.3     1  UNL1       -0.4444
     21 O         142.3860  135.7055  155.5567 O.3     1  UNL1       -0.4790
     22 C         142.6885  134.2948  155.9667 C.ar    1  UNL1        0.1392
     23 C         141.7978  133.1753  155.5158 C.ar    1  UNL1        0.0367
     24 C         142.1003  131.7645  155.9258 C.ar    1  UNL1        0.0021
     25 C         143.2936  131.4732  156.7869 C.ar    1  UNL1        0.0177
     26 C         144.1843  132.5927  157.2379 C.ar    1  UNL1        0.0590
     27 CL        145.3774  132.3014  158.0989 Cl      1  UNL1       -0.0824
     28 C         143.8817  134.0035  156.8278 C.ar    1  UNL1        0.0480
     29 C         143.5961  130.0624  157.1969 C.3     1  UNL1        0.1644
     30 O         143.4296  129.6453  158.6281 O.3     1  UNL1       -0.3772
     31 H         144.0741  130.1162  159.1792 H       1  UNL1        0.2109
@<TRIPOS>BOND
     1    19    20    1
     2    20    17    1
     3    17    18    2
     4    17    16    1
     5    16    15    1
     6    15    14    1
     7    14     8    1
     8     8     9    1
     9     9    10    1
    10    10    11    1
    11    11     7    1
    12     7     1    1
    13     1     2    1
    14     2     3    1
    15     3     4    1
    16     4    21    1
    17    21    22    1
    18    22    23   ar
    19    23    24   ar
    20    24    25   ar
    21    25    29    1
    22    29    30    1
    23    25    26   ar
    24    26    27    1
    25    26    28   ar
    26     4     5    1
    27     5     6    1
    28    11    12    1
    29    12    13    1
    30    13     8    1
    31     6     1    1
    32    28    22   ar
    33    30    31    1
@<TRIPOS>MOLECULE
*****
 31 33 0 0 0
SMALL
GASTEIGER

@<TRIPOS>ATOM
      1 N         140.8347  137.7531  162.0011 N.3     1  UNL1       -0.2724
      2 C         142.2213  137.7373  161.4293 C.3     1  UNL1        0.0758
      3 C         142.4738  138.2923  160.0588 C.3     1  UNL1        0.0609
      4 C         141.3396  138.8629  159.2601 C.3     1  UNL1        0.1687
      5 C         139.9530  138.8787  159.8318 C.3     1  UNL1        0.0609
      6 C         139.7005  138.3237  161.2024 C.3     1  UNL1        0.0758
      7 C         140.5822  137.1981  163.3716 C.3     1  UNL1        0.0721
      8 N         141.5208  139.6744  167.0098 N.3     1  UNL1       -0.2727
      9 C         142.6161  138.9278  166.3078 C.3     1  UNL1        0.0721
     10 C         142.3032  138.1023  165.0951 C.3     1  UNL1        0.0188
     11 C         140.8951  138.0236  164.5843 C.3     1  UNL1        0.0188
     12 C         139.7998  138.7702  165.2864 C.3     1  UNL1        0.0188
     13 C         140.1127  139.5957  166.4991 C.3     1  UNL1        0.0721
     14 C         141.8337  140.4999  168.2226 C.3     1  UNL1        0.0727
     15 C         142.4696  139.8606  169.4213 C.3     1  UNL1        0.0290
     16 C         142.2427  140.4369  170.7875 C.3     1  UNL1        0.1110
     17 C         140.8545  140.7932  171.2302 C.2     1  UNL1        0.3171
     18 O         140.6066  142.0814  171.9574 O.2     1  UNL1       -0.2501
     19 C         138.6354  140.2671  169.9858 C.3     1  UNL1        0.2556
     20 O         139.7142  139.8611  170.9456 O.3     1  UNL1       -0.4444
     21 O         141.5921  139.4179  157.8895 O.3     1  UNL1       -0.4790
     22 C         142.8567  140.1737  157.6077 C.ar    1  UNL1        0.1392
     23 C         143.2038  141.3849  158.4217 C.ar    1  UNL1        0.0367
     24 C         144.4684  142.1408  158.1398 C.ar    1  UNL1        0.0021
     25 C         145.3859  141.6855  157.0440 C.ar    1  UNL1        0.0177
     26 C         145.0389  140.4743  156.2300 C.ar    1  UNL1        0.0590
     27 CL        145.9564  140.0189  155.1342 Cl      1  UNL1       -0.0824
     28 C         143.7742  139.7184  156.5119 C.ar    1  UNL1        0.0480
     29 C         146.6505  142.4413  156.7622 C.3     1  UNL1        0.1644
     30 O         146.7171  143.3839  155.5973 O.3     1  UNL1       -0.3772
     31 H         146.6402  142.8823  154.7706 H       1  UNL1        0.2109
@<TRIPOS>BOND
     1    19    20    1
     2    20    17    1
     3    17    18    2
     4    17    16    1
     5    16    15    1
     6    15    14    1
     7    14     8    1
     8     8     9    1
     9     9    10    1
    10    10    11    1
    11    11     7    1
    12     7     1    1
    13     1     2    1
    14     2     3    1
    15     3     4    1
    16     4    21    1
    17    21    22    1
    18    22    23   ar
    19    23    24   ar
    20    24    25   ar
    21    25    29    1
    22    29    30    1
    23    25    26   ar
    24    26    27    1
    25    26    28   ar
    26     4     5    1
    27     5     6    1
    28    11    12    1
    29    12    13    1
    30    13     8    1
    31     6     1    1
    32    28    22   ar
    33    30    31    1
@<TRIPOS>MOLECULE
*****
 31 33 0 0 0
SMALL
GASTEIGER

@<TRIPOS>ATOM
      1 N         143.8545  140.4947  162.8992 N.3     1  UNL1       -0.2724
      2 C         144.6819  139.4605  163.6035 C.3     1  UNL1        0.0758
      3 C         144.3380  139.0521  165.0052 C.3     1  UNL1        0.0609
      4 C         143.1668  139.6779  165.7028 C.3     1  UNL1        0.1687
      5 C         142.3394  140.7120  164.9986 C.3     1  UNL1        0.0609
      6 C         142.6832  141.1205  163.5967 C.3     1  UNL1        0.0758
      7 C         144.1983  140.9030  161.4974 C.3     1  UNL1        0.0721
      8 N         143.0005  138.2905  158.0348 N.3     1  UNL1       -0.2727
      9 C         143.4861  139.6879  157.7872 C.3     1  UNL1        0.0721
     10 C         143.8854  140.5587  158.9414 C.3     1  UNL1        0.0188
     11 C         143.7990  140.0322  160.3432 C.3     1  UNL1        0.0188
     12 C         143.3134  138.6348  160.5909 C.3     1  UNL1        0.0188
     13 C         142.9141  137.7639  159.4366 C.3     1  UNL1        0.0721
     14 C         142.6012  137.4196  156.8806 C.3     1  UNL1        0.0727
     15 C         142.9608  135.9634  156.8802 C.3     1  UNL1        0.0290
     16 C         142.1071  134.9802  156.1356 C.3     1  UNL1        0.1110
     17 C         142.5633  133.5601  155.9767 C.2     1  UNL1        0.3171
     18 O         142.6380  132.6581  157.1729 O.2     1  UNL1       -0.2501
     19 C         143.4183  131.6274  154.4656 C.3     1  UNL1        0.2556
     20 O         142.9448  133.0421  154.6217 O.3     1  UNL1       -0.4444
     21 O         142.8229  139.2695  167.1046 O.3     1  UNL1       -0.4790
     22 C         142.0811  140.2161  168.0010 C.ar    1  UNL1        0.1392
     23 C         140.5853  140.1485  168.0896 C.ar    1  UNL1        0.0367
     24 C         139.8434  141.0951  168.9860 C.ar    1  UNL1        0.0021
     25 C         140.5975  142.1095  169.7938 C.ar    1  UNL1        0.0177
     26 C         142.0933  142.1771  169.7052 C.ar    1  UNL1        0.0590
     27 CL        142.8474  143.1914  170.5130 Cl      1  UNL1       -0.0824
     28 C         142.8351  141.2304  168.8088 C.ar    1  UNL1        0.0480
     29 C         139.8557  143.0561  170.6902 C.3     1  UNL1        0.1644
     30 O         139.8350  144.5233  170.3787 O.3     1  UNL1       -0.3772
     31 H         140.7308  144.8850  170.4664 H       1  UNL1        0.2109
@<TRIPOS>BOND
     1    19    20    1
     2    20    17    1
     3    17    18    2
     4    17    16    1
     5    16    15    1
     6    15    14    1
     7    14     8    1
     8     8     9    1
     9     9    10    1
    10    10    11    1
    11    11     7    1
    12     7     1    1
    13     1     2    1
    14     2     3    1
    15     3     4    1
    16     4    21    1
    17    21    22    1
    18    22    23   ar
    19    23    24   ar
    20    24    25   ar
    21    25    29    1
    22    29    30    1
    23    25    26   ar
    24    26    27    1
    25    26    28   ar
    26     4     5    1
    27     5     6    1
    28    11    12    1
    29    12    13    1
    30    13     8    1
    31     6     1    1
    32    28    22   ar
    33    30    31    1
@<TRIPOS>MOLECULE
*****
 31 33 0 0 0
SMALL
GASTEIGER

@<TRIPOS>ATOM
      1 N         138.9390  138.4108  161.9983 N.3     1  UNL1       -0.2724
      2 C         139.8994  138.3159  160.8499 C.3     1  UNL1        0.0758
      3 C         139.6548  139.1085  159.6002 C.3     1  UNL1        0.0609
      4 C         138.4498  139.9961  159.4987 C.3     1  UNL1        0.1687
      5 C         137.4894  140.0910  160.6470 C.3     1  UNL1        0.0609
      6 C         137.7340  139.2983  161.8969 C.3     1  UNL1        0.0758
      7 C         139.1836  137.6182  163.2480 C.3     1  UNL1        0.0721
      8 N         140.7867  139.6549  166.9266 N.3     1  UNL1       -0.2727
      9 C         141.7333  139.0886  165.9101 C.3     1  UNL1        0.0721
     10 C         141.1990  138.4097  164.6839 C.3     1  UNL1        0.0188
     11 C         139.7180  138.2971  164.4742 C.3     1  UNL1        0.0188
     12 C         138.7714  138.8634  165.4906 C.3     1  UNL1        0.0188
     13 C         139.3058  139.5423  166.7168 C.3     1  UNL1        0.0721
     14 C         141.3211  140.3338  168.1527 C.3     1  UNL1        0.0727
     15 C         142.3882  139.6708  168.9723 C.3     1  UNL1        0.0290
     16 C         142.4547  139.9097  170.4517 C.3     1  UNL1        0.1110
     17 C         141.4890  140.8550  171.1029 C.2     1  UNL1        0.3171
     18 O         140.0742  140.4257  171.3557 O.2     1  UNL1       -0.2501
     19 C         142.5794  143.1319  170.4889 C.3     1  UNL1        0.2556
     20 O         141.9382  142.2296  171.5013 O.3     1  UNL1       -0.4444
     21 O         138.2051  140.7887  158.2489 O.3     1  UNL1       -0.4790
     22 C         138.9280  142.0845  158.0291 C.ar    1  UNL1        0.1392
     23 C         139.2069  142.5604  156.6342 C.ar    1  UNL1        0.0367
     24 C         139.9297  143.8562  156.4143 C.ar    1  UNL1        0.0021
     25 C         140.3738  144.6761  157.5894 C.ar    1  UNL1        0.0177
     26 C         140.0950  144.2001  158.9843 C.ar    1  UNL1        0.0590
     27 CL        140.5390  145.0199  160.1593 Cl      1  UNL1       -0.0824
     28 C         139.3721  142.9042  159.2041 C.ar    1  UNL1        0.0480
     29 C         141.0967  145.9718  157.3695 C.3     1  UNL1        0.1644
     30 O         142.5409  146.0996  157.7542 O.3     1  UNL1       -0.3772
     31 H         142.6265  146.0275  158.7177 H       1  UNL1        0.2109
@<TRIPOS>BOND
     1    19    20    1
     2    20    17    1
     3    17    18    2
     4    17    16    1
     5    16    15    1
     6    15    14    1
     7    14     8    1
     8     8     9    1
     9     9    10    1
    10    10    11    1
    11    11     7    1
    12     7     1    1
    13     1     2    1
    14     2     3    1
    15     3     4    1
    16     4    21    1
    17    21    22    1
    18    22    23   ar
    19    23    24   ar
    20    24    25   ar
    21    25    29    1
    22    29    30    1
    23    25    26   ar
    24    26    27    1
    25    26    28   ar
    26     4     5    1
    27     5     6    1
    28    11    12    1
    29    12    13    1
    30    13     8    1
    31     6     1    1
    32    28    22   ar
    33    30    31    1
