@<TRIPOS>MOLECULE
*****
 32 35 0 0 0
SMALL
GASTEIGER

@<TRIPOS>ATOM
      1 N         139.7351  137.6322  161.9556 N.3     1  UNL1       -0.1696
      2 H         140.7116  137.3825  161.7995 H       1  UNL1        0.1494
      3 S         139.6421  138.1610  163.3562 S.O2    1  UNL1        0.0607
      4 O         140.7729  139.1055  163.0747 O.2     1  UNL1       -0.1530
      5 O         138.5113  137.2166  163.6378 O.2     1  UNL1       -0.1530
      6 C         139.5491  138.6899  164.7568 C.ar    1  UNL1        0.1222
      7 C         138.3428  138.3857  165.5948 C.ar    1  UNL1        0.0230
      8 C         138.2499  138.9147  166.9955 C.ar    1  UNL1        0.0383
      9 C         139.3633  139.7477  167.5580 C.ar    1  UNL1        0.1385
     10 C         140.5696  140.0517  166.7199 C.ar    1  UNL1        0.0383
     11 C         140.6625  139.5229  165.3194 C.ar    1  UNL1        0.0230
     12 O         139.2704  140.2765  168.9586 O.3     1  UNL1       -0.4792
     13 C         140.2946  141.2497  169.4624 C.3     1  UNL1        0.1659
     14 C         141.4546  140.9250  170.3563 C.3     1  UNL1        0.0435
     15 C         142.2157  142.1930  170.6071 C.3     1  UNL1        0.0038
     16 C         141.5261  143.3014  169.8681 C.3     1  UNL1        0.0038
     17 C         140.3388  142.7184  169.1606 C.3     1  UNL1        0.0435
     18 C         139.3181  138.4926  160.7998 C.3     1  UNL1        0.1781
     19 C         140.1340  138.5049  159.5412 C.2     1  UNL1        0.3334
     20 O         139.5167  138.0766  158.2430 O.2     1  UNL1       -0.2485
     21 C         142.6462  137.9589  159.9163 C.3     1  UNL1        0.2556
     22 O         141.5672  138.9456  159.5810 O.3     1  UNL1       -0.4434
     23 C         138.0850  139.3406  160.9026 C.3     1  UNL1        0.0567
     24 C         138.2035  140.8356  160.9355 C.2     1  UNL1        0.0000
     25 C         138.4813  141.7241  159.7593 C.2     1  UNL1        0.0942
     26 N         138.5145  143.1421  160.2473 N.2     1  UNL1       -0.2482
     27 C         138.2573  143.1300  161.7250 C.2     1  UNL1        0.0631
     28 C         138.1732  144.2328  162.7382 C.3     1  UNL1        0.0717
     29 C         137.8969  143.9102  164.1768 C.2     1  UNL1       -0.0198
     30 C         137.7047  142.4846  164.6021 C.2     1  UNL1       -0.0042
     31 C         137.7888  141.3818  163.5889 C.2     1  UNL1        0.0006
     32 C         138.0650  141.7045  162.1504 C.2     1  UNL1        0.0115
@<TRIPOS>BOND
     1    21    22    1
     2    22    19    1
     3    19    20    2
     4    19    18    1
     5    18    23    1
     6    23    24    1
     7    24    25    2
     8    25    26    1
     9    26    27    2
    10    27    28    1
    11    28    29    1
    12    29    30    2
    13    30    31    1
    14    31    32    2
    15    18     1    1
    16     1     3    1
    17     3     4    2
    18     3     5    2
    19     3     6    1
    20     6     7   ar
    21     7     8   ar
    22     8     9   ar
    23     9    12    1
    24    12    13    1
    25    13    14    1
    26    14    15    1
    27    15    16    1
    28    16    17    1
    29     9    10   ar
    30    10    11   ar
    31    32    24    1
    32    11     6   ar
    33    32    27    1
    34    17    13    1
    35     1     2    1
@<TRIPOS>MOLECULE
*****
 32 35 0 0 0
SMALL
GASTEIGER

@<TRIPOS>ATOM
      1 N         139.6797  137.6188  161.8649 N.3     1  UNL1       -0.1696
      2 H         140.6548  137.3831  161.6809 H       1  UNL1        0.1494
      3 S         139.6186  138.1444  163.2684 S.O2    1  UNL1        0.0607
      4 O         138.5054  137.1879  163.5780 O.2     1  UNL1       -0.1530
      5 O         140.7318  139.1009  162.9588 O.2     1  UNL1       -0.1530
      6 C         139.5575  138.6698  164.6720 C.ar    1  UNL1        0.1222
      7 C         140.7010  139.4680  165.2246 C.ar    1  UNL1        0.0230
      8 C         140.6398  139.9934  166.6282 C.ar    1  UNL1        0.0383
      9 C         139.4351  139.7207  167.4793 C.ar    1  UNL1        0.1385
     10 C         138.2916  138.9225  166.9267 C.ar    1  UNL1        0.0383
     11 C         138.3528  138.3971  165.5231 C.ar    1  UNL1        0.0230
     12 O         139.3739  140.2462  168.8829 O.3     1  UNL1       -0.4792
     13 C         140.4135  141.2128  169.3679 C.3     1  UNL1        0.1659
     14 C         140.3399  142.7079  169.2726 C.3     1  UNL1        0.0435
     15 C         141.5900  143.2731  169.8791 C.3     1  UNL1        0.0038
     16 C         142.4362  142.1272  170.3491 C.3     1  UNL1        0.0038
     17 C         141.7091  140.8538  170.0332 C.3     1  UNL1        0.0435
     18 C         139.2183  138.4748  160.7227 C.3     1  UNL1        0.1781
     19 C         139.9725  138.4656  159.4262 C.2     1  UNL1        0.3334
     20 O         141.4667  138.3340  159.4286 O.2     1  UNL1       -0.2485
     21 C         139.9365  139.1085  156.9092 C.3     1  UNL1        0.2556
     22 O         139.2325  138.5882  158.1273 O.3     1  UNL1       -0.4434
     23 C         138.0025  139.3399  160.8772 C.3     1  UNL1        0.0567
     24 C         138.1435  140.8329  160.9087 C.2     1  UNL1        0.0000
     25 C         138.4269  141.7168  159.7304 C.2     1  UNL1        0.0942
     26 N         138.4844  143.1343  160.2177 N.2     1  UNL1       -0.2482
     27 C         138.2367  143.1264  161.6970 C.2     1  UNL1        0.0631
     28 C         138.1757  144.2307  162.7104 C.3     1  UNL1        0.0717
     29 C         137.9040  143.9125  164.1508 C.2     1  UNL1       -0.0198
     30 C         137.6933  142.4902  164.5779 C.2     1  UNL1       -0.0042
     31 C         137.7543  141.3859  163.5646 C.2     1  UNL1        0.0006
     32 C         138.0260  141.7041  162.1241 C.2     1  UNL1        0.0115
@<TRIPOS>BOND
     1    21    22    1
     2    22    19    1
     3    19    20    2
     4    19    18    1
     5    18    23    1
     6    23    24    1
     7    24    25    2
     8    25    26    1
     9    26    27    2
    10    27    28    1
    11    28    29    1
    12    29    30    2
    13    30    31    1
    14    31    32    2
    15    18     1    1
    16     1     3    1
    17     3     4    2
    18     3     5    2
    19     3     6    1
    20     6     7   ar
    21     7     8   ar
    22     8     9   ar
    23     9    12    1
    24    12    13    1
    25    13    14    1
    26    14    15    1
    27    15    16    1
    28    16    17    1
    29     9    10   ar
    30    10    11   ar
    31    32    24    1
    32    11     6   ar
    33    32    27    1
    34    17    13    1
    35     1     2    1
@<TRIPOS>MOLECULE
*****
 32 35 0 0 0
SMALL
GASTEIGER

@<TRIPOS>ATOM
      1 N         137.3005  140.7733  162.0170 N.3     1  UNL1       -0.1696
      2 H         136.7841  139.9080  161.8593 H       1  UNL1        0.1494
      3 S         137.8897  140.6812  163.3933 S.O2    1  UNL1        0.0607
      4 O         138.3976  139.3042  163.0836 O.2     1  UNL1       -0.1530
      5 O         137.3817  142.0582  163.7030 O.2     1  UNL1       -0.1530
      6 C         138.4789  140.5890  164.7696 C.ar    1  UNL1        0.1222
      7 C         139.4189  141.6520  165.2558 C.ar    1  UNL1        0.0230
      8 C         140.0081  141.5597  166.6323 C.ar    1  UNL1        0.0383
      9 C         139.6573  140.4045  167.5224 C.ar    1  UNL1        0.1385
     10 C         138.7172  139.3415  167.0361 C.ar    1  UNL1        0.0383
     11 C         138.1281  139.4338  165.6598 C.ar    1  UNL1        0.0230
     12 O         140.2465  140.3123  168.8987 O.3     1  UNL1       -0.4792
     13 C         141.3560  141.2371  169.3031 C.3     1  UNL1        0.1659
     14 C         141.2013  142.5187  170.0670 C.3     1  UNL1        0.0435
     15 C         142.5647  143.1164  170.2506 C.3     1  UNL1        0.0038
     16 C         143.5621  142.2042  169.6001 C.3     1  UNL1        0.0038
     17 C         142.8151  141.0427  169.0145 C.3     1  UNL1        0.0435
     18 C         138.1960  140.9657  160.8291 C.3     1  UNL1        0.1781
     19 C         138.1484  139.9927  159.6885 C.2     1  UNL1        0.3334
     20 O         139.0688  138.8084  159.6741 O.2     1  UNL1       -0.2485
     21 C         137.5329  141.1269  157.4337 C.3     1  UNL1        0.2556
     22 O         137.1804  140.2040  158.5624 O.3     1  UNL1       -0.4434
     23 C         139.1392  142.1313  160.7818 C.3     1  UNL1        0.0567
     24 C         140.4791  142.0393  161.4496 C.2     1  UNL1        0.0000
     25 C         141.4019  140.8572  161.4157 C.2     1  UNL1        0.0942
     26 N         142.6247  141.2007  162.2137 N.2     1  UNL1       -0.2482
     27 C         142.4576  142.5951  162.7408 C.2     1  UNL1        0.0631
     28 C         143.3416  143.4598  163.5898 C.3     1  UNL1        0.0717
     29 C         142.8996  144.8427  163.9666 C.2     1  UNL1       -0.0198
     30 C         141.5735  145.3610  163.4943 C.2     1  UNL1       -0.0042
     31 C         140.6895  144.4963  162.6453 C.2     1  UNL1        0.0006
     32 C         141.1316  143.1134  162.2686 C.2     1  UNL1        0.0115
@<TRIPOS>BOND
     1    21    22    1
     2    22    19    1
     3    19    20    2
     4    19    18    1
     5    18    23    1
     6    23    24    1
     7    24    25    2
     8    25    26    1
     9    26    27    2
    10    27    28    1
    11    28    29    1
    12    29    30    2
    13    30    31    1
    14    31    32    2
    15    18     1    1
    16     1     3    1
    17     3     4    2
    18     3     5    2
    19     3     6    1
    20     6     7   ar
    21     7     8   ar
    22     8     9   ar
    23     9    12    1
    24    12    13    1
    25    13    14    1
    26    14    15    1
    27    15    16    1
    28    16    17    1
    29     9    10   ar
    30    10    11   ar
    31    32    24    1
    32    11     6   ar
    33    32    27    1
    34    17    13    1
    35     1     2    1
@<TRIPOS>MOLECULE
*****
 32 35 0 0 0
SMALL
GASTEIGER

@<TRIPOS>ATOM
      1 N         142.4301  144.9392  161.8474 N.3     1  UNL1       -0.1696
      2 H         142.7809  145.8045  162.2578 H       1  UNL1        0.1494
      3 S         142.3926  143.9216  162.9488 S.O2    1  UNL1        0.0607
      4 O         142.2078  142.8315  161.9353 O.2     1  UNL1       -0.1530
      5 O         142.5775  145.0118  163.9623 O.2     1  UNL1       -0.1530
      6 C         142.3552  142.9041  164.0502 C.ar    1  UNL1        0.1222
      7 C         143.1724  143.1112  165.2908 C.ar    1  UNL1        0.0230
      8 C         143.1348  142.0935  166.3922 C.ar    1  UNL1        0.0383
      9 C         142.2802  140.8687  166.2529 C.ar    1  UNL1        0.1385
     10 C         141.4630  140.6616  165.0122 C.ar    1  UNL1        0.0383
     11 C         141.5005  141.6793  163.9109 C.ar    1  UNL1        0.0230
     12 O         142.2427  139.8511  167.3543 O.3     1  UNL1       -0.4792
     13 C         141.2507  139.9905  168.4708 C.3     1  UNL1        0.1659
     14 C         141.5251  139.7619  169.9277 C.3     1  UNL1        0.0435
     15 C         140.2541  140.0130  170.6836 C.3     1  UNL1        0.0038
     16 C         139.1942  140.3968  169.6940 C.3     1  UNL1        0.0038
     17 C         139.8101  140.3828  168.3263 C.3     1  UNL1        0.0435
     18 C         141.1736  145.2894  161.1067 C.3     1  UNL1        0.1781
     19 C         141.1462  145.2340  159.6080 C.2     1  UNL1        0.3334
     20 O         139.8552  145.4426  158.8733 O.2     1  UNL1       -0.2485
     21 C         142.8068  143.5612  158.5153 C.3     1  UNL1        0.2556
     22 O         142.4097  144.9699  158.8441 O.3     1  UNL1       -0.4434
     23 C         139.9444  145.6951  161.8649 C.3     1  UNL1        0.0567
     24 C         139.1994  144.6824  162.6830 C.2     1  UNL1        0.0000
     25 C         138.8050  144.8297  164.1227 C.2     1  UNL1        0.0942
     26 N         138.0799  143.5828  164.5345 N.2     1  UNL1       -0.2482
     27 C         138.0262  142.6649  163.3493 C.2     1  UNL1        0.0631
     28 C         137.4367  141.2981  163.1643 C.3     1  UNL1        0.0717
     29 C         137.5392  140.6109  161.8350 C.2     1  UNL1       -0.0198
     30 C         138.2311  141.2904  160.6907 C.2     1  UNL1       -0.0042
     31 C         138.8206  142.6572  160.8757 C.2     1  UNL1        0.0006
     32 C         138.7182  143.3445  162.2050 C.2     1  UNL1        0.0115
@<TRIPOS>BOND
     1    21    22    1
     2    22    19    1
     3    19    20    2
     4    19    18    1
     5    18    23    1
     6    23    24    1
     7    24    25    2
     8    25    26    1
     9    26    27    2
    10    27    28    1
    11    28    29    1
    12    29    30    2
    13    30    31    1
    14    31    32    2
    15    18     1    1
    16     1     3    1
    17     3     4    2
    18     3     5    2
    19     3     6    1
    20     6     7   ar
    21     7     8   ar
    22     8     9   ar
    23     9    12    1
    24    12    13    1
    25    13    14    1
    26    14    15    1
    27    15    16    1
    28    16    17    1
    29     9    10   ar
    30    10    11   ar
    31    32    24    1
    32    11     6   ar
    33    32    27    1
    34    17    13    1
    35     1     2    1
@<TRIPOS>MOLECULE
*****
 32 35 0 0 0
SMALL
GASTEIGER

@<TRIPOS>ATOM
      1 N         138.4210  142.6603  160.4737 N.3     1  UNL1       -0.1696
      2 H         137.5548  143.1931  160.5511 H       1  UNL1        0.1494
      3 S         139.0703  142.6905  161.8255 S.O2    1  UNL1        0.0607
      4 O         137.7932  143.1970  162.4275 O.2     1  UNL1       -0.1530
      5 O         140.3474  142.1839  161.2236 O.2     1  UNL1       -0.1530
      6 C         139.7195  142.7207  163.1774 C.ar    1  UNL1        0.1222
      7 C         140.9756  141.9387  163.4239 C.ar    1  UNL1        0.0230
      8 C         141.6247  141.9690  164.7759 C.ar    1  UNL1        0.0383
      9 C         141.0178  142.7813  165.8813 C.ar    1  UNL1        0.1385
     10 C         139.7617  143.5633  165.6347 C.ar    1  UNL1        0.0383
     11 C         139.1126  143.5330  164.2828 C.ar    1  UNL1        0.0230
     12 O         141.6670  142.8115  167.2332 O.3     1  UNL1       -0.4792
     13 C         140.8564  142.5197  168.4611 C.3     1  UNL1        0.1659
     14 C         140.6032  143.4672  169.5961 C.3     1  UNL1        0.0435
     15 C         139.7471  142.7622  170.6061 C.3     1  UNL1        0.0038
     16 C         139.4712  141.3791  170.0953 C.3     1  UNL1        0.0038
     17 C         140.1568  141.2292  168.7696 C.3     1  UNL1        0.0435
     18 C         138.0666  141.3473  159.8410 C.3     1  UNL1        0.1781
     19 C         138.2823  141.1406  158.3710 C.2     1  UNL1        0.3334
     20 O         138.3705  139.7506  157.8141 O.2     1  UNL1       -0.2485
     21 C         137.3255  142.6263  156.4666 C.3     1  UNL1        0.2556
     22 O         138.4097  142.3239  157.4581 O.3     1  UNL1       -0.4434
     23 C         137.4966  140.2408  160.6783 C.3     1  UNL1        0.0567
     24 C         138.4125  139.3205  161.4293 C.2     1  UNL1        0.0000
     25 C         139.3522  138.3222  160.8208 C.2     1  UNL1        0.0942
     26 N         140.0699  137.6216  161.9362 N.2     1  UNL1       -0.2482
     27 C         139.5737  138.1868  163.2340 C.2     1  UNL1        0.0631
     28 C         139.9223  137.8811  164.6605 C.3     1  UNL1        0.0717
     29 C         139.2466  138.6254  165.7737 C.2     1  UNL1       -0.0198
     30 C         138.2222  139.6754  165.4605 C.2     1  UNL1       -0.0042
     31 C         137.8735  139.9811  164.0340 C.2     1  UNL1        0.0006
     32 C         138.5493  139.2368  162.9207 C.2     1  UNL1        0.0115
@<TRIPOS>BOND
     1    21    22    1
     2    22    19    1
     3    19    20    2
     4    19    18    1
     5    18    23    1
     6    23    24    1
     7    24    25    2
     8    25    26    1
     9    26    27    2
    10    27    28    1
    11    28    29    1
    12    29    30    2
    13    30    31    1
    14    31    32    2
    15    18     1    1
    16     1     3    1
    17     3     4    2
    18     3     5    2
    19     3     6    1
    20     6     7   ar
    21     7     8   ar
    22     8     9   ar
    23     9    12    1
    24    12    13    1
    25    13    14    1
    26    14    15    1
    27    15    16    1
    28    16    17    1
    29     9    10   ar
    30    10    11   ar
    31    32    24    1
    32    11     6   ar
    33    32    27    1
    34    17    13    1
    35     1     2    1
@<TRIPOS>MOLECULE
*****
 32 35 0 0 0
SMALL
GASTEIGER

@<TRIPOS>ATOM
      1 N         141.1807  137.3176  162.0402 N.3     1  UNL1       -0.1696
      2 H         141.9168  136.6418  162.2446 H       1  UNL1        0.1494
      3 S         140.6710  137.8152  163.3603 S.O2    1  UNL1        0.0607
      4 O         142.0707  138.1688  163.7673 O.2     1  UNL1       -0.1530
      5 O         139.2713  137.4616  162.9532 O.2     1  UNL1       -0.1530
      6 C         140.1614  138.3128  164.6804 C.ar    1  UNL1        0.1222
      7 C         140.9865  139.2677  165.4912 C.ar    1  UNL1        0.0230
      8 C         140.4768  139.7652  166.8113 C.ar    1  UNL1        0.0383
      9 C         139.1421  139.3079  167.3207 C.ar    1  UNL1        0.1385
     10 C         138.3170  138.3530  166.5098 C.ar    1  UNL1        0.0383
     11 C         138.8267  137.8555  165.1897 C.ar    1  UNL1        0.0230
     12 O         138.6325  139.8055  168.6408 O.3     1  UNL1       -0.4792
     13 C         139.5719  140.4633  169.6077 C.3     1  UNL1        0.1659
     14 C         140.7024  139.7945  170.3319 C.3     1  UNL1        0.0435
     15 C         141.3749  140.8232  171.1919 C.3     1  UNL1        0.0038
     16 C         140.6600  142.1277  170.9991 C.3     1  UNL1        0.0038
     17 C         139.5456  141.9053  170.0200 C.3     1  UNL1        0.0435
     18 C         141.7453  138.2841  161.0417 C.3     1  UNL1        0.1781
     19 C         143.0892  138.0277  160.4267 C.2     1  UNL1        0.3334
     20 O         144.2167  137.5173  161.2742 O.2     1  UNL1       -0.2485
     21 C         142.5202  137.5107  157.9450 C.3     1  UNL1        0.2556
     22 O         143.3055  138.2817  158.9643 O.3     1  UNL1       -0.4434
     23 C         140.9659  139.5071  160.6580 C.3     1  UNL1        0.0567
     24 C         140.9409  140.6973  161.5705 C.2     1  UNL1        0.0000
     25 C         142.0993  141.6010  161.8728 C.2     1  UNL1        0.0942
     26 N         141.6273  142.6550  162.8300 N.2     1  UNL1       -0.2482
     27 C         140.1773  142.4028  163.1193 C.2     1  UNL1        0.0631
     28 C         139.1884  143.1185  163.9910 C.3     1  UNL1        0.0717
     29 C         137.7753  142.6243  164.0842 C.2     1  UNL1       -0.0198
     30 C         137.3510  141.4143  163.3057 C.2     1  UNL1       -0.0042
     31 C         138.3399  140.6986  162.4340 C.2     1  UNL1        0.0006
     32 C         139.7530  141.1928  162.3408 C.2     1  UNL1        0.0115
@<TRIPOS>BOND
     1    21    22    1
     2    22    19    1
     3    19    20    2
     4    19    18    1
     5    18    23    1
     6    23    24    1
     7    24    25    2
     8    25    26    1
     9    26    27    2
    10    27    28    1
    11    28    29    1
    12    29    30    2
    13    30    31    1
    14    31    32    2
    15    18     1    1
    16     1     3    1
    17     3     4    2
    18     3     5    2
    19     3     6    1
    20     6     7   ar
    21     7     8   ar
    22     8     9   ar
    23     9    12    1
    24    12    13    1
    25    13    14    1
    26    14    15    1
    27    15    16    1
    28    16    17    1
    29     9    10   ar
    30    10    11   ar
    31    32    24    1
    32    11     6   ar
    33    32    27    1
    34    17    13    1
    35     1     2    1
@<TRIPOS>MOLECULE
*****
 32 35 0 0 0
SMALL
GASTEIGER

@<TRIPOS>ATOM
      1 N         142.5343  144.8617  161.2658 N.3     1  UNL1       -0.1696
      2 H         142.6394  145.7819  161.6931 H       1  UNL1        0.1494
      3 S         142.6387  143.8555  162.3733 S.O2    1  UNL1        0.0607
      4 O         142.7862  142.7577  161.3619 O.2     1  UNL1       -0.1530
      5 O         142.4912  144.9534  163.3848 O.2     1  UNL1       -0.1530
      6 C         142.7431  142.8493  163.4808 C.ar    1  UNL1        0.1222
      7 C         143.2130  143.2759  164.8400 C.ar    1  UNL1        0.0230
      8 C         143.3174  142.2695  165.9474 C.ar    1  UNL1        0.0383
      9 C         142.9520  140.8366  165.6957 C.ar    1  UNL1        0.1385
     10 C         142.4821  140.4101  164.3365 C.ar    1  UNL1        0.0383
     11 C         142.3777  141.4164  163.2291 C.ar    1  UNL1        0.0230
     12 O         143.0564  139.8304  166.8032 O.3     1  UNL1       -0.4792
     13 C         142.0718  139.8554  167.9346 C.3     1  UNL1        0.1659
     14 C         140.6347  140.2755  167.8436 C.3     1  UNL1        0.0435
     15 C         140.0262  140.1444  169.2084 C.3     1  UNL1        0.0038
     16 C         141.0872  139.6433  170.1428 C.3     1  UNL1        0.0038
     17 C         142.3515  139.4646  169.3555 C.3     1  UNL1        0.0435
     18 C         141.2989  144.9172  160.4168 C.3     1  UNL1        0.1781
     19 C         141.4173  145.0725  158.9296 C.2     1  UNL1        0.3334
     20 O         142.7163  144.7668  158.2446 O.2     1  UNL1       -0.2485
     21 C         139.7090  144.6808  157.0118 C.3     1  UNL1        0.2556
     22 O         140.2367  145.5334  158.1274 O.3     1  UNL1       -0.4434
     23 C         139.9451  144.8173  161.0551 C.3     1  UNL1        0.0567
     24 C         139.2817  143.4800  161.2015 C.2     1  UNL1        0.0000
     25 C         138.8019  142.6064  160.0805 C.2     1  UNL1        0.0942
     26 N         138.2054  141.3679  160.6809 N.2     1  UNL1       -0.2482
     27 C         138.3165  141.4761  162.1728 C.2     1  UNL1        0.0631
     28 C         137.8978  140.5547  163.2799 C.3     1  UNL1        0.0717
     29 C         138.1444  140.9387  164.7088 C.2     1  UNL1       -0.0198
     30 C         138.8097  142.2440  165.0306 C.2     1  UNL1       -0.0042
     31 C         139.2283  143.1654  163.9235 C.2     1  UNL1        0.0006
     32 C         138.9817  142.7815  162.4946 C.2     1  UNL1        0.0115
@<TRIPOS>BOND
     1    21    22    1
     2    22    19    1
     3    19    20    2
     4    19    18    1
     5    18    23    1
     6    23    24    1
     7    24    25    2
     8    25    26    1
     9    26    27    2
    10    27    28    1
    11    28    29    1
    12    29    30    2
    13    30    31    1
    14    31    32    2
    15    18     1    1
    16     1     3    1
    17     3     4    2
    18     3     5    2
    19     3     6    1
    20     6     7   ar
    21     7     8   ar
    22     8     9   ar
    23     9    12    1
    24    12    13    1
    25    13    14    1
    26    14    15    1
    27    15    16    1
    28    16    17    1
    29     9    10   ar
    30    10    11   ar
    31    32    24    1
    32    11     6   ar
    33    32    27    1
    34    17    13    1
    35     1     2    1
@<TRIPOS>MOLECULE
*****
 32 35 0 0 0
SMALL
GASTEIGER

@<TRIPOS>ATOM
      1 N         144.5849  140.1229  161.7838 N.3     1  UNL1       -0.1696
      2 H         144.8094  141.0985  161.5884 H       1  UNL1        0.1494
      3 S         143.9140  140.0933  163.1250 S.O2    1  UNL1        0.0607
      4 O         144.8255  138.9829  163.5564 O.2     1  UNL1       -0.1530
      5 O         143.0024  141.2037  162.6936 O.2     1  UNL1       -0.1530
      6 C         143.2431  140.0636  164.4663 C.ar    1  UNL1        0.1222
      7 C         142.0641  140.9511  164.7350 C.ar    1  UNL1        0.0230
      8 C         141.3932  140.9213  166.0763 C.ar    1  UNL1        0.0383
      9 C         141.9014  140.0041  167.1489 C.ar    1  UNL1        0.1385
     10 C         143.0804  139.1166  166.8801 C.ar    1  UNL1        0.0383
     11 C         143.7513  139.1464  165.5389 C.ar    1  UNL1        0.0230
     12 O         141.2305  139.9744  168.4902 O.3     1  UNL1       -0.4792
     13 C         140.9010  141.2582  169.1926 C.3     1  UNL1        0.1659
     14 C         139.6809  141.5197  170.0251 C.3     1  UNL1        0.0435
     15 C         139.7596  142.9290  170.5328 C.3     1  UNL1        0.0038
     16 C         141.0283  143.5384  170.0141 C.3     1  UNL1        0.0038
     17 C         141.7337  142.5058  169.1858 C.3     1  UNL1        0.0435
     18 C         143.8708  139.5926  160.5760 C.3     1  UNL1        0.1781
     19 C         143.8934  140.3666  159.2913 C.2     1  UNL1        0.3334
     20 O         144.4478  139.7386  158.0470 O.2     1  UNL1       -0.2485
     21 C         141.9103  142.0284  159.5265 C.3     1  UNL1        0.2556
     22 O         143.3617  141.7686  159.2510 O.3     1  UNL1       -0.4434
     23 C         143.1339  138.2882  160.6529 C.3     1  UNL1        0.0567
     24 C         141.6440  138.2776  160.8259 C.2     1  UNL1        0.0000
     25 C         140.6315  138.6107  159.7705 C.2     1  UNL1        0.0942
     26 N         139.2667  138.4710  160.3770 N.2     1  UNL1       -0.2482
     27 C         139.4357  138.0514  161.8072 C.2     1  UNL1        0.0631
     28 C         138.4416  137.7628  162.8927 C.3     1  UNL1        0.0717
     29 C         138.9168  137.3546  164.2556 C.2     1  UNL1       -0.0198
     30 C         140.3860  137.2351  164.5330 C.2     1  UNL1       -0.0042
     31 C         141.3801  137.5238  163.4475 C.2     1  UNL1        0.0006
     32 C         140.9050  137.9319  162.0846 C.2     1  UNL1        0.0115
@<TRIPOS>BOND
     1    21    22    1
     2    22    19    1
     3    19    20    2
     4    19    18    1
     5    18    23    1
     6    23    24    1
     7    24    25    2
     8    25    26    1
     9    26    27    2
    10    27    28    1
    11    28    29    1
    12    29    30    2
    13    30    31    1
    14    31    32    2
    15    18     1    1
    16     1     3    1
    17     3     4    2
    18     3     5    2
    19     3     6    1
    20     6     7   ar
    21     7     8   ar
    22     8     9   ar
    23     9    12    1
    24    12    13    1
    25    13    14    1
    26    14    15    1
    27    15    16    1
    28    16    17    1
    29     9    10   ar
    30    10    11   ar
    31    32    24    1
    32    11     6   ar
    33    32    27    1
    34    17    13    1
    35     1     2    1
@<TRIPOS>MOLECULE
*****
 32 35 0 0 0
SMALL
GASTEIGER

@<TRIPOS>ATOM
      1 N         139.1483  143.1259  161.3455 N.3     1  UNL1       -0.1696
      2 H         138.6759  142.4972  160.6959 H       1  UNL1        0.1494
      3 S         139.1686  142.4369  162.6777 S.O2    1  UNL1        0.0607
      4 O         138.7537  141.1540  162.0203 O.2     1  UNL1       -0.1530
      5 O         139.5835  143.7197  163.3350 O.2     1  UNL1       -0.1530
      6 C         139.1889  141.7477  164.0098 C.ar    1  UNL1        0.1222
      7 C         138.3898  140.4956  164.2187 C.ar    1  UNL1        0.0230
      8 C         138.4102  139.8065  165.5510 C.ar    1  UNL1        0.0383
      9 C         139.2295  140.3695  166.6742 C.ar    1  UNL1        0.1385
     10 C         140.0285  141.6218  166.4653 C.ar    1  UNL1        0.0383
     11 C         140.0081  142.3108  165.1331 C.ar    1  UNL1        0.0230
     12 O         139.2497  139.6804  168.0064 O.3     1  UNL1       -0.4792
     13 C         140.0613  140.2488  169.1326 C.3     1  UNL1        0.1659
     14 C         139.6044  141.2905  170.1104 C.3     1  UNL1        0.0435
     15 C         140.7330  141.5608  171.0608 C.3     1  UNL1        0.0038
     16 C         141.8873  140.6861  170.6704 C.3     1  UNL1        0.0038
     17 C         141.4722  139.8753  169.4787 C.3     1  UNL1        0.0435
     18 C         140.4355  143.5352  160.6930 C.3     1  UNL1        0.1781
     19 C         140.6163  144.9433  160.2088 C.2     1  UNL1        0.3334
     20 O         139.6011  145.9918  160.5552 O.2     1  UNL1       -0.2485
     21 C         141.6266  145.8830  158.0075 C.3     1  UNL1        0.2556
     22 O         141.8124  145.3029  159.3782 O.3     1  UNL1       -0.4434
     23 C         141.5418  142.5362  160.5247 C.3     1  UNL1        0.0567
     24 C         142.2862  142.0321  161.7255 C.2     1  UNL1        0.0000
     25 C         142.4924  140.5930  162.0948 C.2     1  UNL1        0.0942
     26 N         143.2887  140.5501  163.3653 N.2     1  UNL1       -0.2482
     27 C         143.5745  141.9627  163.7812 C.2     1  UNL1        0.0631
     28 C         144.3189  142.5332  164.9518 C.3     1  UNL1        0.0717
     29 C         144.4436  144.0197  165.1089 C.2     1  UNL1       -0.0198
     30 C         143.8241  144.9357  164.0954 C.2     1  UNL1       -0.0042
     31 C         143.0797  144.3651  162.9248 C.2     1  UNL1        0.0006
     32 C         142.9549  142.8786  162.7677 C.2     1  UNL1        0.0115
@<TRIPOS>BOND
     1    21    22    1
     2    22    19    1
     3    19    20    2
     4    19    18    1
     5    18    23    1
     6    23    24    1
     7    24    25    2
     8    25    26    1
     9    26    27    2
    10    27    28    1
    11    28    29    1
    12    29    30    2
    13    30    31    1
    14    31    32    2
    15    18     1    1
    16     1     3    1
    17     3     4    2
    18     3     5    2
    19     3     6    1
    20     6     7   ar
    21     7     8   ar
    22     8     9   ar
    23     9    12    1
    24    12    13    1
    25    13    14    1
    26    14    15    1
    27    15    16    1
    28    16    17    1
    29     9    10   ar
    30    10    11   ar
    31    32    24    1
    32    11     6   ar
    33    32    27    1
    34    17    13    1
    35     1     2    1
