@<TRIPOS>MOLECULE
*****
 36 41 0 0 0
SMALL
GASTEIGER

@<TRIPOS>ATOM
      1 C         142.5543  136.7429  157.6626 C.3     1  UNL1        0.1161
      2 C         143.2586  135.4347  157.4563 C.3     1  UNL1        0.0510
      3 C         142.9079  134.5713  156.2809 C.2     1  UNL1       -0.0044
      4 C         141.8529  135.0162  155.3119 C.2     1  UNL1        0.0689
      5 N         141.7210  133.9612  154.2537 N.2     1  UNL1       -0.2526
      6 C         142.6945  132.8644  154.5687 C.2     1  UNL1        0.0627
      7 C         143.0078  131.5710  153.8766 C.3     1  UNL1        0.0717
      8 C         144.0546  130.6548  154.4374 C.2     1  UNL1       -0.0198
      9 C         144.7882  131.0318  155.6903 C.2     1  UNL1       -0.0042
     10 C         144.4749  132.3252  156.3824 C.2     1  UNL1        0.0006
     11 C         143.4281  133.2415  155.8216 C.2     1  UNL1        0.0111
     12 C         141.1486  136.3244  155.5182 C.3     1  UNL1        0.0949
     13 N         141.4993  137.1877  156.6936 N.3     1  UNL1       -0.2887
     14 H         140.6417  137.3166  157.2306 H       1  UNL1        0.1239
     15 C         143.1731  138.4125  161.1115 C.ar    1  UNL1        0.0769
     16 C         143.7165  139.4570  160.1822 C.ar    1  UNL1        0.1171
     17 N         143.5509  138.9587  158.7772 N.ar    1  UNL1       -0.2282
     18 C         142.9051  137.6063  158.8381 C.ar    1  UNL1        0.1318
     19 N         142.6716  137.2686  160.2808 N.ar    1  UNL1       -0.3397
     20 H         142.2612  136.4415  160.6225 H       1  UNL1        0.1671
     21 C         143.0660  138.6658  165.6031 C.ar    1  UNL1        0.0714
     22 C         141.9270  138.0328  164.8603 C.ar    1  UNL1        0.0039
     23 C         141.9627  137.9483  163.3631 C.ar    1  UNL1        0.0014
     24 C         143.1374  138.4969  162.6088 C.ar    1  UNL1        0.0171
     25 C         144.2764  139.1300  163.3516 C.ar    1  UNL1        0.0014
     26 C         144.2407  139.2144  164.8488 C.ar    1  UNL1        0.0039
     27 F         142.9947  138.8347  168.5975 F       1  UNL1       -0.1659
     28 C         143.0303  138.7503  167.1004 C.3     1  UNL1        0.4186
     29 F         144.0889  137.6909  167.1853 F       1  UNL1       -0.1659
     30 F         141.9717  139.8096  167.0154 F       1  UNL1       -0.1659
     31 C         140.0935  136.7692  154.5492 C.3     1  UNL1        0.0252
     32 C         140.4070  136.8515  153.0847 C.3     1  UNL1        0.0339
     33 C         139.3519  137.2964  152.1157 C.3     1  UNL1        0.1422
     34 O         137.9834  137.6590  152.6113 O.3     1  UNL1       -0.3538
     35 C         137.6699  137.5767  154.0759 C.3     1  UNL1        0.1422
     36 C         138.7249  137.1319  155.0448 C.3     1  UNL1        0.0339
@<TRIPOS>BOND
     1    27    28    1
     2    28    29    1
     3    28    30    1
     4    28    21    1
     5    21    22   ar
     6    22    23   ar
     7    23    24   ar
     8    24    15    1
     9    15    16   ar
    10    16    17   ar
    11    17    18   ar
    12     1    18    1
    13     1     2    1
    14     2     3    1
    15     3     4    2
    16     4     5    1
    17     5     6    2
    18     6     7    1
    19     7     8    1
    20     8     9    2
    21     9    10    1
    22    10    11    2
    23     4    12    1
    24    12    31    1
    25    31    32    1
    26    32    33    1
    27    33    34    1
    28    34    35    1
    29    35    36    1
    30    12    13    1
    31    18    19   ar
    32    24    25   ar
    33    25    26   ar
    34    26    21   ar
    35    19    15   ar
    36    13     1    1
    37    11     3    1
    38    36    31    1
    39    11     6    1
    40    13    14    1
    41    19    20    1
@<TRIPOS>MOLECULE
*****
 36 41 0 0 0
SMALL
GASTEIGER

@<TRIPOS>ATOM
      1 C         141.3583  138.8084  158.3671 C.3     1  UNL1        0.1161
      2 C         142.4162  139.8633  158.2324 C.3     1  UNL1        0.0510
      3 C         143.4959  139.7153  157.2017 C.2     1  UNL1       -0.0044
      4 C         143.5177  138.5125  156.3057 C.2     1  UNL1        0.0689
      5 N         144.6981  138.6388  155.3890 N.2     1  UNL1       -0.2526
      6 C         145.4059  139.9197  155.7183 C.2     1  UNL1        0.0627
      7 C         146.6310  140.5661  155.1428 C.3     1  UNL1        0.0717
      8 C         147.1130  141.8779  155.6876 C.2     1  UNL1       -0.0198
      9 C         146.3699  142.5432  156.8079 C.2     1  UNL1       -0.0042
     10 C         145.1449  141.8968  157.3835 C.2     1  UNL1        0.0006
     11 C         144.6629  140.5850  156.8386 C.2     1  UNL1        0.0111
     12 C         142.4597  137.4576  156.4405 C.3     1  UNL1        0.0949
     13 N         141.3801  137.6056  157.4712 N.3     1  UNL1       -0.2887
     14 H         141.4380  136.7876  158.0778 H       1  UNL1        0.1239
     15 C         139.1209  139.0705  161.5279 C.ar    1  UNL1        0.0769
     16 C         138.1135  139.2977  160.4401 C.ar    1  UNL1        0.1171
     17 N         138.8289  139.2272  159.1236 N.ar    1  UNL1       -0.2282
     18 C         140.2785  138.9564  159.3979 C.ar    1  UNL1        0.1318
     19 N         140.4590  138.8596  160.8838 N.ar    1  UNL1       -0.3397
     20 H         141.3069  138.6877  161.3538 H       1  UNL1        0.1671
     21 C         138.2771  139.0289  165.9479 C.ar    1  UNL1        0.0714
     22 C         138.7482  137.7806  165.2626 C.ar    1  UNL1        0.0039
     23 C         139.0295  137.7945  163.7893 C.ar    1  UNL1        0.0014
     24 C         138.8396  139.0567  163.0013 C.ar    1  UNL1        0.0171
     25 C         138.3684  140.3050  163.6867 C.ar    1  UNL1        0.0014
     26 C         138.0872  140.2911  165.1600 C.ar    1  UNL1        0.0039
     27 F         137.7145  139.0013  168.8946 F       1  UNL1       -0.1659
     28 C         137.9958  139.0151  167.4213 C.3     1  UNL1        0.4186
     29 F         139.0875  140.0204  167.6391 F       1  UNL1       -0.1659
     30 F         136.9041  138.0098  167.2035 F       1  UNL1       -0.1659
     31 C         142.4815  136.2548  155.5445 C.3     1  UNL1        0.0252
     32 C         141.9869  136.3623  154.1326 C.3     1  UNL1        0.0339
     33 C         142.0088  135.1594  153.2366 C.3     1  UNL1        0.1422
     34 O         142.5252  133.8491  153.7527 O.3     1  UNL1       -0.3538
     35 C         143.0198  133.7416  155.1648 C.3     1  UNL1        0.1422
     36 C         142.9980  134.9444  156.0606 C.3     1  UNL1        0.0339
@<TRIPOS>BOND
     1    27    28    1
     2    28    29    1
     3    28    30    1
     4    28    21    1
     5    21    22   ar
     6    22    23   ar
     7    23    24   ar
     8    24    15    1
     9    15    16   ar
    10    16    17   ar
    11    17    18   ar
    12     1    18    1
    13     1     2    1
    14     2     3    1
    15     3     4    2
    16     4     5    1
    17     5     6    2
    18     6     7    1
    19     7     8    1
    20     8     9    2
    21     9    10    1
    22    10    11    2
    23     4    12    1
    24    12    31    1
    25    31    32    1
    26    32    33    1
    27    33    34    1
    28    34    35    1
    29    35    36    1
    30    12    13    1
    31    18    19   ar
    32    24    25   ar
    33    25    26   ar
    34    26    21   ar
    35    19    15   ar
    36    13     1    1
    37    11     3    1
    38    36    31    1
    39    11     6    1
    40    13    14    1
    41    19    20    1
@<TRIPOS>MOLECULE
*****
 36 41 0 0 0
SMALL
GASTEIGER

@<TRIPOS>ATOM
      1 C         140.4884  144.0741  160.1889 C.3     1  UNL1        0.1161
      2 C         139.9771  145.1457  159.2722 C.3     1  UNL1        0.0510
      3 C         140.4885  145.2357  157.8649 C.2     1  UNL1       -0.0044
      4 C         141.5113  144.2541  157.3745 C.2     1  UNL1        0.0689
      5 N         141.8273  144.5886  155.9468 N.2     1  UNL1       -0.2526
      6 C         141.0000  145.7769  155.5549 C.2     1  UNL1        0.0627
      7 C         140.8931  146.5463  154.2718 C.3     1  UNL1        0.0717
      8 C         139.9588  147.7157  154.1742 C.2     1  UNL1       -0.0198
      9 C         139.1314  148.1156  155.3597 C.2     1  UNL1       -0.0042
     10 C         139.2382  147.3461  156.6428 C.2     1  UNL1        0.0006
     11 C         140.1725  146.1768  156.7404 C.2     1  UNL1        0.0111
     12 C         142.0226  143.1826  158.2912 C.3     1  UNL1        0.0949
     13 N         141.5112  143.0926  159.6984 N.3     1  UNL1       -0.2887
     14 H         142.3211  143.1799  160.3122 H       1  UNL1        0.1239
     15 C         139.6570  143.2741  163.8949 C.ar    1  UNL1        0.0769
     16 C         138.7229  144.4172  163.6285 C.ar    1  UNL1        0.1171
     17 N         138.9207  144.8560  162.2079 N.ar    1  UNL1       -0.2282
     18 C         139.9769  143.9842  161.5962 C.ar    1  UNL1        0.1318
     19 N         140.4320  143.0065  162.6388 N.ar    1  UNL1       -0.3397
     20 H         141.1188  142.3113  162.5196 H       1  UNL1        0.1671
     21 C         140.0628  141.0401  167.7800 C.ar    1  UNL1        0.0714
     22 C         140.4449  142.4886  167.7044 C.ar    1  UNL1        0.0039
     23 C         140.3096  143.2333  166.4094 C.ar    1  UNL1        0.0014
     24 C         139.7922  142.5294  165.1900 C.ar    1  UNL1        0.0171
     25 C         139.4102  141.0809  165.2656 C.ar    1  UNL1        0.0014
     26 C         139.5455  140.3362  166.5606 C.ar    1  UNL1        0.0039
     27 F         140.3335  139.5507  170.3701 F       1  UNL1       -0.1659
     28 C         140.1981  140.2954  169.0751 C.3     1  UNL1        0.4186
     29 F         141.3515  139.5211  168.5093 F       1  UNL1       -0.1659
     30 F         139.0448  141.0697  169.6409 F       1  UNL1       -0.1659
     31 C         143.0453  142.2011  157.8007 C.3     1  UNL1        0.0252
     32 C         142.6297  140.8099  157.4244 C.3     1  UNL1        0.0339
     33 C         143.6526  139.8284  156.9339 C.3     1  UNL1        0.1422
     34 O         145.0910  140.2381  156.8198 O.3     1  UNL1       -0.3538
     35 C         145.5066  141.6294  157.1962 C.3     1  UNL1        0.1422
     36 C         144.4839  142.6108  157.6866 C.3     1  UNL1        0.0339
@<TRIPOS>BOND
     1    27    28    1
     2    28    29    1
     3    28    30    1
     4    28    21    1
     5    21    22   ar
     6    22    23   ar
     7    23    24   ar
     8    24    15    1
     9    15    16   ar
    10    16    17   ar
    11    17    18   ar
    12     1    18    1
    13     1     2    1
    14     2     3    1
    15     3     4    2
    16     4     5    1
    17     5     6    2
    18     6     7    1
    19     7     8    1
    20     8     9    2
    21     9    10    1
    22    10    11    2
    23     4    12    1
    24    12    31    1
    25    31    32    1
    26    32    33    1
    27    33    34    1
    28    34    35    1
    29    35    36    1
    30    12    13    1
    31    18    19   ar
    32    24    25   ar
    33    25    26   ar
    34    26    21   ar
    35    19    15   ar
    36    13     1    1
    37    11     3    1
    38    36    31    1
    39    11     6    1
    40    13    14    1
    41    19    20    1
@<TRIPOS>MOLECULE
*****
 36 41 0 0 0
SMALL
GASTEIGER

@<TRIPOS>ATOM
      1 C         139.4805  139.8219  157.5525 C.3     1  UNL1        0.1161
      2 C         139.1249  139.7002  159.0046 C.3     1  UNL1        0.0510
      3 C         138.7953  140.9276  159.8015 C.2     1  UNL1       -0.0044
      4 C         138.8214  142.2766  159.1462 C.2     1  UNL1        0.0689
      5 N         138.4532  143.3005  160.1787 N.2     1  UNL1       -0.2526
      6 C         138.1996  142.5844  161.4721 C.2     1  UNL1        0.0627
      7 C         137.8035  143.0782  162.8319 C.3     1  UNL1        0.0717
      8 C         137.6188  142.1054  163.9586 C.2     1  UNL1       -0.0198
      9 C         137.8302  140.6388  163.7255 C.2     1  UNL1       -0.0042
     10 C         138.2264  140.1450  162.3657 C.2     1  UNL1        0.0006
     11 C         138.4111  141.1178  161.2389 C.2     1  UNL1        0.0111
     12 C         139.1770  142.3983  157.6941 C.3     1  UNL1        0.0949
     13 N         139.5066  141.1710  156.8972 N.3     1  UNL1       -0.2887
     14 H         140.4494  141.3022  156.5308 H       1  UNL1        0.1239
     15 C         140.8629  136.5369  156.0154 C.ar    1  UNL1        0.0769
     16 C         139.7715  136.8748  155.0435 C.ar    1  UNL1        0.1171
     17 N         139.1208  138.1465  155.5010 N.ar    1  UNL1       -0.2282
     18 C         139.8101  138.5945  156.7556 C.ar    1  UNL1        0.1318
     19 N         140.8868  137.5998  157.0735 N.ar    1  UNL1       -0.3397
     20 H         141.5012  137.6378  157.8418 H       1  UNL1        0.1671
     21 C         143.5875  132.9622  155.7954 C.ar    1  UNL1        0.0714
     22 C         143.9057  134.0913  156.7302 C.ar    1  UNL1        0.0039
     23 C         142.9975  135.2828  156.8036 C.ar    1  UNL1        0.0014
     24 C         141.7711  135.3453  155.9420 C.ar    1  UNL1        0.0171
     25 C         141.4530  134.2162  155.0072 C.ar    1  UNL1        0.0014
     26 C         142.3612  133.0247  154.9338 C.ar    1  UNL1        0.0039
     27 F         145.4039  130.5791  155.6487 F       1  UNL1       -0.1659
     28 C         144.4957  131.7706  155.7220 C.3     1  UNL1        0.4186
     29 F         145.1864  132.2200  156.9754 F       1  UNL1       -0.1659
     30 F         143.8051  131.3213  154.4686 F       1  UNL1       -0.1659
     31 C         139.2031  143.7473  157.0388 C.3     1  UNL1        0.0252
     32 C         138.2652  144.0501  155.9081 C.3     1  UNL1        0.0339
     33 C         138.2913  145.3993  155.2528 C.3     1  UNL1        0.1422
     34 O         139.2553  146.4455  155.7283 O.3     1  UNL1       -0.3538
     35 C         140.1933  146.1426  156.8590 C.3     1  UNL1        0.1422
     36 C         140.1671  144.7936  157.5143 C.3     1  UNL1        0.0339
@<TRIPOS>BOND
     1    27    28    1
     2    28    29    1
     3    28    30    1
     4    28    21    1
     5    21    22   ar
     6    22    23   ar
     7    23    24   ar
     8    24    15    1
     9    15    16   ar
    10    16    17   ar
    11    17    18   ar
    12     1    18    1
    13     1     2    1
    14     2     3    1
    15     3     4    2
    16     4     5    1
    17     5     6    2
    18     6     7    1
    19     7     8    1
    20     8     9    2
    21     9    10    1
    22    10    11    2
    23     4    12    1
    24    12    31    1
    25    31    32    1
    26    32    33    1
    27    33    34    1
    28    34    35    1
    29    35    36    1
    30    12    13    1
    31    18    19   ar
    32    24    25   ar
    33    25    26   ar
    34    26    21   ar
    35    19    15   ar
    36    13     1    1
    37    11     3    1
    38    36    31    1
    39    11     6    1
    40    13    14    1
    41    19    20    1
@<TRIPOS>MOLECULE
*****
 36 41 0 0 0
SMALL
GASTEIGER

@<TRIPOS>ATOM
      1 C         142.0303  139.9567  160.6187 C.3     1  UNL1        0.1161
      2 C         142.4933  139.3180  161.8946 C.3     1  UNL1        0.0510
      3 C         142.1907  139.9687  163.2118 C.2     1  UNL1       -0.0044
      4 C         141.4251  141.2579  163.2532 C.2     1  UNL1        0.0689
      5 N         141.2766  141.6629  164.6898 N.2     1  UNL1       -0.2526
      6 C         141.9503  140.6240  165.5364 C.2     1  UNL1        0.0627
      7 C         142.1224  140.4961  167.0209 C.3     1  UNL1        0.0717
      8 C         142.8594  139.3211  167.5921 C.2     1  UNL1       -0.0198
      9 C         143.4243  138.2740  166.6786 C.2     1  UNL1       -0.0042
     10 C         143.2522  138.4019  165.1940 C.2     1  UNL1        0.0006
     11 C         142.5153  139.5768  164.6229 C.2     1  UNL1        0.0111
     12 C         140.9622  141.8966  161.9773 C.3     1  UNL1        0.0949
     13 N         141.2648  141.2459  160.6601 N.3     1  UNL1       -0.2887
     14 H         141.7974  141.9223  160.1130 H       1  UNL1        0.1239
     15 C         142.7488  137.6292  157.5968 C.ar    1  UNL1        0.0769
     16 C         142.8486  138.9800  156.9524 C.ar    1  UNL1        0.1171
     17 N         142.5916  140.0163  158.0060 N.ar    1  UNL1       -0.2282
     18 C         142.3330  139.3060  159.3015 C.ar    1  UNL1        0.1318
     19 N         142.4301  137.8306  159.0487 N.ar    1  UNL1       -0.3397
     20 H         142.3064  137.1194  159.7181 H       1  UNL1        0.1671
     21 C         143.3072  133.6679  155.5362 C.ar    1  UNL1        0.0714
     22 C         142.9674  134.8891  154.7343 C.ar    1  UNL1        0.0039
     23 C         142.7812  136.2095  155.4211 C.ar    1  UNL1        0.0014
     24 C         142.9349  136.3087  156.9099 C.ar    1  UNL1        0.0171
     25 C         143.2748  135.0875  157.7119 C.ar    1  UNL1        0.0014
     26 C         143.4609  133.7671  157.0250 C.ar    1  UNL1        0.0039
     27 F         143.6795  131.0270  154.1625 F       1  UNL1       -0.1659
     28 C         143.4934  132.3474  154.8494 C.3     1  UNL1        0.4186
     29 F         142.2777  132.6118  154.0116 F       1  UNL1       -0.1659
     30 F         144.7092  132.0830  155.6872 F       1  UNL1       -0.1659
     31 C         140.1967  143.1859  162.0186 C.3     1  UNL1        0.0252
     32 C         138.8527  143.2391  162.6824 C.3     1  UNL1        0.0339
     33 C         138.0871  144.5285  162.7237 C.3     1  UNL1        0.1422
     34 O         138.6657  145.7645  162.1012 O.3     1  UNL1       -0.3538
     35 C         140.0098  145.7112  161.4374 C.3     1  UNL1        0.1422
     36 C         140.7752  144.4220  161.3961 C.3     1  UNL1        0.0339
@<TRIPOS>BOND
     1    27    28    1
     2    28    29    1
     3    28    30    1
     4    28    21    1
     5    21    22   ar
     6    22    23   ar
     7    23    24   ar
     8    24    15    1
     9    15    16   ar
    10    16    17   ar
    11    17    18   ar
    12     1    18    1
    13     1     2    1
    14     2     3    1
    15     3     4    2
    16     4     5    1
    17     5     6    2
    18     6     7    1
    19     7     8    1
    20     8     9    2
    21     9    10    1
    22    10    11    2
    23     4    12    1
    24    12    31    1
    25    31    32    1
    26    32    33    1
    27    33    34    1
    28    34    35    1
    29    35    36    1
    30    12    13    1
    31    18    19   ar
    32    24    25   ar
    33    25    26   ar
    34    26    21   ar
    35    19    15   ar
    36    13     1    1
    37    11     3    1
    38    36    31    1
    39    11     6    1
    40    13    14    1
    41    19    20    1
@<TRIPOS>MOLECULE
*****
 36 41 0 0 0
SMALL
GASTEIGER

@<TRIPOS>ATOM
      1 C         138.5530  140.7437  159.8379 C.3     1  UNL1        0.1161
      2 C         139.4457  141.9336  159.6445 C.3     1  UNL1        0.0510
      3 C         139.4478  142.6646  158.3347 C.2     1  UNL1       -0.0044
      4 C         138.5572  142.2058  157.2184 C.2     1  UNL1        0.0689
      5 N         138.7733  143.1188  156.0480 N.2     1  UNL1       -0.2526
      6 C         139.7974  144.1418  156.4410 C.2     1  UNL1        0.0627
      7 C         140.4042  145.2927  155.6946 C.3     1  UNL1        0.0717
      8 C         141.4279  146.1629  156.3615 C.2     1  UNL1       -0.0198
      9 C         141.8448  145.8822  157.7748 C.2     1  UNL1       -0.0042
     10 C         141.2380  144.7313  158.5212 C.2     1  UNL1        0.0006
     11 C         140.2143  143.8611  157.8543 C.2     1  UNL1        0.0111
     12 C         137.6645  141.0159  157.4118 C.3     1  UNL1        0.0949
     13 N         137.6624  140.2849  158.7215 N.3     1  UNL1       -0.2887
     14 H         137.9176  139.3182  158.5196 H       1  UNL1        0.1239
     15 C         138.7446  139.5196  163.5163 C.ar    1  UNL1        0.0769
     16 C         138.3510  138.2560  162.8105 C.ar    1  UNL1        0.1171
     17 N         138.2313  138.5607  161.3466 N.ar    1  UNL1       -0.2282
     18 C         138.5509  140.0126  161.1478 C.ar    1  UNL1        0.1318
     19 N         138.8682  140.6053  162.4887 N.ar    1  UNL1       -0.3397
     20 H         139.1143  141.5424  162.6636 H       1  UNL1        0.1671
     21 C         139.4338  139.9739  167.9399 C.ar    1  UNL1        0.0714
     22 C         140.2748  140.7456  166.9667 C.ar    1  UNL1        0.0039
     23 C         140.0450  140.5942  165.4922 C.ar    1  UNL1        0.0014
     24 C         138.9743  139.6711  164.9909 C.ar    1  UNL1        0.0171
     25 C         138.1333  138.8993  165.9641 C.ar    1  UNL1        0.0014
     26 C         138.3631  139.0508  167.4386 C.ar    1  UNL1        0.0039
     27 F         139.8932  140.2768  170.8890 F       1  UNL1       -0.1659
     28 C         139.6635  140.1254  169.4145 C.3     1  UNL1        0.4186
     29 F         141.1454  140.1359  169.1825 F       1  UNL1       -0.1659
     30 F         138.1816  140.1148  169.6465 F       1  UNL1       -0.1659
     31 C         136.7739  140.5571  156.2954 C.3     1  UNL1        0.0252
     32 C         135.2862  140.7079  156.4125 C.3     1  UNL1        0.0339
     33 C         134.3956  140.2490  155.2961 C.3     1  UNL1        0.1422
     34 O         134.9928  139.6394  154.0625 O.3     1  UNL1       -0.3538
     35 C         136.4806  139.4885  153.9454 C.3     1  UNL1        0.1422
     36 C         137.3711  139.9474  155.0618 C.3     1  UNL1        0.0339
@<TRIPOS>BOND
     1    27    28    1
     2    28    29    1
     3    28    30    1
     4    28    21    1
     5    21    22   ar
     6    22    23   ar
     7    23    24   ar
     8    24    15    1
     9    15    16   ar
    10    16    17   ar
    11    17    18   ar
    12     1    18    1
    13     1     2    1
    14     2     3    1
    15     3     4    2
    16     4     5    1
    17     5     6    2
    18     6     7    1
    19     7     8    1
    20     8     9    2
    21     9    10    1
    22    10    11    2
    23     4    12    1
    24    12    31    1
    25    31    32    1
    26    32    33    1
    27    33    34    1
    28    34    35    1
    29    35    36    1
    30    12    13    1
    31    18    19   ar
    32    24    25   ar
    33    25    26   ar
    34    26    21   ar
    35    19    15   ar
    36    13     1    1
    37    11     3    1
    38    36    31    1
    39    11     6    1
    40    13    14    1
    41    19    20    1
@<TRIPOS>MOLECULE
*****
 36 41 0 0 0
SMALL
GASTEIGER

@<TRIPOS>ATOM
      1 C         142.4263  139.5217  158.3753 C.3     1  UNL1        0.1161
      2 C         143.1390  139.5054  159.6952 C.3     1  UNL1        0.0510
      3 C         143.3554  140.7855  160.4465 C.2     1  UNL1       -0.0044
      4 C         142.8592  142.0819  159.8779 C.2     1  UNL1        0.0689
      5 N         143.2161  143.1764  160.8395 N.2     1  UNL1       -0.2526
      6 C         143.9328  142.5565  162.0023 C.2     1  UNL1        0.0627
      7 C         144.5181  143.1467  163.2509 C.3     1  UNL1        0.0717
      8 C         145.1895  142.2592  164.2566 C.2     1  UNL1       -0.0198
      9 C         145.2756  140.7815  164.0137 C.2     1  UNL1       -0.0042
     10 C         144.6903  140.1913  162.7651 C.2     1  UNL1        0.0006
     11 C         144.0189  141.0788  161.7594 C.2     1  UNL1        0.0111
     12 C         142.1466  142.0981  158.5581 C.3     1  UNL1        0.0949
     13 N         141.9302  140.8180  157.8068 N.3     1  UNL1       -0.2887
     14 H         142.3777  140.9312  156.8972 H       1  UNL1        0.1239
     15 C         142.5070  135.9917  156.7633 C.ar    1  UNL1        0.0769
     16 C         141.2469  136.5514  156.1726 C.ar    1  UNL1        0.1171
     17 N         141.0633  137.9418  156.7046 N.ar    1  UNL1       -0.2282
     18 C         142.2099  138.2415  157.6240 C.ar    1  UNL1        0.1318
     19 N         143.1022  137.0363  157.6604 N.ar    1  UNL1       -0.3397
     20 H         143.9326  136.9466  158.1815 H       1  UNL1        0.1671
     21 C         144.2039  131.8979  155.9817 C.ar    1  UNL1        0.0714
     22 C         144.4663  132.5811  157.2910 C.ar    1  UNL1        0.0039
     23 C         143.9007  133.9457  157.5516 C.ar    1  UNL1        0.0014
     24 C         143.0726  134.6271  156.5028 C.ar    1  UNL1        0.0171
     25 C         142.8101  133.9439  155.1935 C.ar    1  UNL1        0.0014
     26 C         143.3758  132.5793  154.9329 C.ar    1  UNL1        0.0039
     27 F         145.3351  129.1686  155.4607 F       1  UNL1       -0.1659
     28 C         144.7695  130.5332  155.7212 C.3     1  UNL1        0.4186
     29 F         145.0465  130.3684  157.1861 F       1  UNL1       -0.1659
     30 F         144.4925  130.6981  154.2562 F       1  UNL1       -0.1659
     31 C         141.6505  143.3945  157.9896 C.3     1  UNL1        0.0252
     32 C         142.6202  144.4930  157.6693 C.3     1  UNL1        0.0339
     33 C         142.1240  145.7894  157.1007 C.3     1  UNL1        0.1422
     34 O         140.6580  145.9872  156.8525 O.3     1  UNL1       -0.3538
     35 C         139.6881  144.8886  157.1728 C.3     1  UNL1        0.1422
     36 C         140.1844  143.5923  157.7413 C.3     1  UNL1        0.0339
@<TRIPOS>BOND
     1    27    28    1
     2    28    29    1
     3    28    30    1
     4    28    21    1
     5    21    22   ar
     6    22    23   ar
     7    23    24   ar
     8    24    15    1
     9    15    16   ar
    10    16    17   ar
    11    17    18   ar
    12     1    18    1
    13     1     2    1
    14     2     3    1
    15     3     4    2
    16     4     5    1
    17     5     6    2
    18     6     7    1
    19     7     8    1
    20     8     9    2
    21     9    10    1
    22    10    11    2
    23     4    12    1
    24    12    31    1
    25    31    32    1
    26    32    33    1
    27    33    34    1
    28    34    35    1
    29    35    36    1
    30    12    13    1
    31    18    19   ar
    32    24    25   ar
    33    25    26   ar
    34    26    21   ar
    35    19    15   ar
    36    13     1    1
    37    11     3    1
    38    36    31    1
    39    11     6    1
    40    13    14    1
    41    19    20    1
@<TRIPOS>MOLECULE
*****
 36 41 0 0 0
SMALL
GASTEIGER

@<TRIPOS>ATOM
      1 C         141.7341  137.6489  157.4117 C.3     1  UNL1        0.1161
      2 C         140.6273  138.4303  156.7679 C.3     1  UNL1        0.0510
      3 C         139.9243  137.8809  155.5622 C.2     1  UNL1       -0.0044
      4 C         140.3280  136.5500  155.0002 C.2     1  UNL1        0.0689
      5 N         139.4590  136.2662  153.8110 N.2     1  UNL1       -0.2526
      6 C         138.5182  137.4215  153.6380 C.2     1  UNL1        0.0627
      7 C         137.4368  137.6938  152.6347 C.3     1  UNL1        0.0717
      8 C         136.6430  138.9640  152.7138 C.2     1  UNL1       -0.0198
      9 C         136.9305  139.9620  153.7962 C.2     1  UNL1       -0.0042
     10 C         138.0119  139.6897  154.7994 C.2     1  UNL1        0.0006
     11 C         138.8057  138.4195  154.7203 C.2     1  UNL1        0.0111
     12 C         141.4348  135.7686  155.6440 C.3     1  UNL1        0.0949
     13 N         142.1379  136.3181  156.8497 N.3     1  UNL1       -0.2887
     14 H         143.1263  136.3882  156.6078 H       1  UNL1        0.1239
     15 C         143.0602  138.6524  160.9188 C.ar    1  UNL1        0.0769
     16 C         143.9776  139.4354  160.0271 C.ar    1  UNL1        0.1171
     17 N         143.5925  139.1549  158.6048 N.ar    1  UNL1       -0.2282
     18 C         142.4371  138.1984  158.6175 C.ar    1  UNL1        0.1318
     19 N         142.1081  137.8878  160.0476 N.ar    1  UNL1       -0.3397
     20 H         141.3929  137.2875  160.3596 H       1  UNL1        0.1671
     21 C         143.1485  138.6049  165.4177 C.ar    1  UNL1        0.0714
     22 C         142.0044  137.9711  164.6833 C.ar    1  UNL1        0.0039
     23 C         141.9750  137.9869  163.1837 C.ar    1  UNL1        0.0014
     24 C         143.0896  138.6366  162.4185 C.ar    1  UNL1        0.0171
     25 C         144.2337  139.2704  163.1529 C.ar    1  UNL1        0.0014
     26 C         144.2631  139.2546  164.6525 C.ar    1  UNL1        0.0039
     27 F         143.2074  138.5733  168.4170 F       1  UNL1       -0.1659
     28 C         143.1779  138.5891  166.9174 C.3     1  UNL1        0.4186
     29 F         144.1723  137.4666  166.8860 F       1  UNL1       -0.1659
     30 F         142.1836  139.7117  166.9488 F       1  UNL1       -0.1659
     31 C         141.8386  134.4378  155.0820 C.3     1  UNL1        0.0252
     32 C         141.9445  134.2515  153.5975 C.3     1  UNL1        0.0339
     33 C         142.3483  132.9205  153.0355 C.3     1  UNL1        0.1422
     34 O         142.6462  131.7760  153.9582 O.3     1  UNL1       -0.3538
     35 C         142.5404  131.9624  155.4428 C.3     1  UNL1        0.1422
     36 C         142.1366  133.2932  156.0047 C.3     1  UNL1        0.0339
@<TRIPOS>BOND
     1    27    28    1
     2    28    29    1
     3    28    30    1
     4    28    21    1
     5    21    22   ar
     6    22    23   ar
     7    23    24   ar
     8    24    15    1
     9    15    16   ar
    10    16    17   ar
    11    17    18   ar
    12     1    18    1
    13     1     2    1
    14     2     3    1
    15     3     4    2
    16     4     5    1
    17     5     6    2
    18     6     7    1
    19     7     8    1
    20     8     9    2
    21     9    10    1
    22    10    11    2
    23     4    12    1
    24    12    31    1
    25    31    32    1
    26    32    33    1
    27    33    34    1
    28    34    35    1
    29    35    36    1
    30    12    13    1
    31    18    19   ar
    32    24    25   ar
    33    25    26   ar
    34    26    21   ar
    35    19    15   ar
    36    13     1    1
    37    11     3    1
    38    36    31    1
    39    11     6    1
    40    13    14    1
    41    19    20    1
@<TRIPOS>MOLECULE
*****
 36 41 0 0 0
SMALL
GASTEIGER

@<TRIPOS>ATOM
      1 C         143.0167  139.2817  158.0388 C.3     1  UNL1        0.1161
      2 C         142.2565  140.4743  157.5388 C.3     1  UNL1        0.0510
      3 C         142.1470  141.7046  158.3899 C.2     1  UNL1       -0.0044
      4 C         142.7977  141.7423  159.7408 C.2     1  UNL1        0.0689
      5 N         142.5212  143.0844  160.3511 N.2     1  UNL1       -0.2526
      6 C         141.6996  143.8761  159.3773 C.2     1  UNL1        0.0627
      7 C         141.1323  145.2633  159.4377 C.3     1  UNL1        0.0717
      8 C         140.3336  145.7977  158.2860 C.2     1  UNL1       -0.0198
      9 C         140.1023  144.9449  157.0738 C.2     1  UNL1       -0.0042
     10 C         140.6697  143.5577  157.0134 C.2     1  UNL1        0.0006
     11 C         141.4683  143.0233  158.1651 C.2     1  UNL1        0.0111
     12 C         143.5579  140.5498  160.2408 C.3     1  UNL1        0.0949
     13 N         143.6674  139.3195  159.3897 N.3     1  UNL1       -0.2887
     14 H         143.2692  138.5514  159.9299 H       1  UNL1        0.1239
     15 C         143.1862  135.7294  156.4839 C.ar    1  UNL1        0.0769
     16 C         143.4029  136.5867  155.2723 C.ar    1  UNL1        0.1171
     17 N         143.3658  138.0218  155.7072 N.ar    1  UNL1       -0.2282
     18 C         143.1261  138.0513  157.1876 C.ar    1  UNL1        0.1318
     19 N         143.0151  136.6346  157.6677 N.ar    1  UNL1       -0.3397
     20 H         142.8577  136.3490  158.5966 H       1  UNL1        0.1671
     21 C         143.0698  131.2315  156.5550 C.ar    1  UNL1        0.0714
     22 C         144.1125  131.9672  157.3431 C.ar    1  UNL1        0.0039
     23 C         144.1513  133.4665  157.3194 C.ar    1  UNL1        0.0014
     24 C         143.1474  134.2300  156.5075 C.ar    1  UNL1        0.0171
     25 C         142.1046  133.4942  155.7194 C.ar    1  UNL1        0.0014
     26 C         142.0658  131.9950  155.7431 C.ar    1  UNL1        0.0039
     27 F         142.9922  128.2328  156.6024 F       1  UNL1       -0.1659
     28 C         143.0310  129.7321  156.5786 C.3     1  UNL1        0.4186
     29 F         144.3195  129.7109  157.3462 F       1  UNL1       -0.1659
     30 F         141.7424  129.7533  155.8111 F       1  UNL1       -0.1659
     31 C         144.2086  140.5875  161.5917 C.3     1  UNL1        0.0252
     32 C         145.0357  141.7728  161.9929 C.3     1  UNL1        0.0339
     33 C         145.6864  141.8105  163.3440 C.3     1  UNL1        0.1422
     34 O         145.5100  140.6629  164.2937 O.3     1  UNL1       -0.3538
     35 C         144.6829  139.4776  163.8925 C.3     1  UNL1        0.1422
     36 C         144.0322  139.4400  162.5415 C.3     1  UNL1        0.0339
@<TRIPOS>BOND
     1    27    28    1
     2    28    29    1
     3    28    30    1
     4    28    21    1
     5    21    22   ar
     6    22    23   ar
     7    23    24   ar
     8    24    15    1
     9    15    16   ar
    10    16    17   ar
    11    17    18   ar
    12     1    18    1
    13     1     2    1
    14     2     3    1
    15     3     4    2
    16     4     5    1
    17     5     6    2
    18     6     7    1
    19     7     8    1
    20     8     9    2
    21     9    10    1
    22    10    11    2
    23     4    12    1
    24    12    31    1
    25    31    32    1
    26    32    33    1
    27    33    34    1
    28    34    35    1
    29    35    36    1
    30    12    13    1
    31    18    19   ar
    32    24    25   ar
    33    25    26   ar
    34    26    21   ar
    35    19    15   ar
    36    13     1    1
    37    11     3    1
    38    36    31    1
    39    11     6    1
    40    13    14    1
    41    19    20    1
