@<TRIPOS>MOLECULE
*****
 19 20 0 0 0
SMALL
GASTEIGER

@<TRIPOS>ATOM
      1 C         141.0491  141.9163  167.6791 C.ar    1  UNL1        0.1426
      2 C         140.8434  142.8317  168.8494 C.ar    1  UNL1        0.0372
      3 C         139.9522  142.4135  169.9812 C.ar    1  UNL1        0.0031
      4 C         139.2667  141.0798  169.9426 C.ar    1  UNL1       -0.0001
      5 C         139.4724  140.1644  168.7723 C.ar    1  UNL1        0.0001
      6 C         140.3637  140.5826  167.6405 C.ar    1  UNL1        0.0284
      7 O         141.9403  142.3345  166.5473 O.3     1  UNL1       -0.4538
      8 C         140.3195  144.9303  163.2481 C.ar    1  UNL1        0.0254
      9 C         139.3943  144.3799  164.2925 C.ar    1  UNL1        0.0093
     10 C         139.9345  143.5146  165.3923 C.ar    1  UNL1        0.0380
     11 C         141.4001  143.1998  165.4476 C.ar    1  UNL1        0.1453
     12 C         142.3253  143.7502  164.4032 C.ar    1  UNL1        0.0380
     13 C         141.7850  144.6155  163.3034 C.ar    1  UNL1        0.0093
     14 C         140.2427  145.5907  160.7366 C.3     1  UNL1        0.0742
     15 S         139.7793  145.7956  162.1484 S.3     1  UNL1       -0.1127
     16 C         140.5694  139.6672  166.4702 C.3     1  UNL1        0.1023
     17 N         139.7570  139.8506  165.2226 N.3     1  UNL1       -0.2664
     18 C         140.4424  140.0068  163.8976 C.3     1  UNL1        0.0899
     19 C         138.2593  139.8779  165.3001 C.3     1  UNL1        0.0899
@<TRIPOS>BOND
     1    14    15    1
     2    15     8    1
     3     8     9   ar
     4     9    10   ar
     5    10    11   ar
     6    11     7    1
     7     7     1    1
     8     1     2   ar
     9     2     3   ar
    10     3     4   ar
    11     4     5   ar
    12     5     6   ar
    13     6    16    1
    14    16    17    1
    15    17    18    1
    16    17    19    1
    17    11    12   ar
    18    12    13   ar
    19    13     8   ar
    20     6     1   ar
@<TRIPOS>MOLECULE
*****
 19 20 0 0 0
SMALL
GASTEIGER

@<TRIPOS>ATOM
      1 C         138.4941  139.8062  164.4450 C.ar    1  UNL1        0.1426
      2 C         139.1846  138.4780  164.5410 C.ar    1  UNL1        0.0372
      3 C         139.2944  137.6004  163.3295 C.ar    1  UNL1        0.0031
      4 C         138.7137  138.0510  162.0219 C.ar    1  UNL1       -0.0001
      5 C         138.0232  139.3791  161.9258 C.ar    1  UNL1        0.0001
      6 C         137.9134  140.2568  163.1374 C.ar    1  UNL1        0.0284
      7 O         138.3843  140.6838  165.6565 O.3     1  UNL1       -0.4538
      8 C         141.7971  140.9206  168.5800 C.ar    1  UNL1        0.0254
      9 C         141.8458  141.7088  167.3047 C.ar    1  UNL1        0.0093
     10 C         140.7082  141.6299  166.3302 C.ar    1  UNL1        0.0380
     11 C         139.5219  140.7627  166.6310 C.ar    1  UNL1        0.1453
     12 C         139.4731  139.9745  167.9062 C.ar    1  UNL1        0.0380
     13 C         140.6107  140.0534  168.8807 C.ar    1  UNL1        0.0093
     14 C         143.6891  142.2848  169.7241 C.3     1  UNL1        0.0742
     15 S         142.9347  140.9995  169.5545 S.3     1  UNL1       -0.1127
     16 C         137.2229  141.5849  163.0413 C.3     1  UNL1        0.1023
     17 N         138.0308  142.8451  162.9453 N.3     1  UNL1       -0.2664
     18 C         138.8975  143.0908  161.7460 C.3     1  UNL1        0.0899
     19 C         137.9722  143.8595  164.0487 C.3     1  UNL1        0.0899
@<TRIPOS>BOND
     1    14    15    1
     2    15     8    1
     3     8     9   ar
     4     9    10   ar
     5    10    11   ar
     6    11     7    1
     7     7     1    1
     8     1     2   ar
     9     2     3   ar
    10     3     4   ar
    11     4     5   ar
    12     5     6   ar
    13     6    16    1
    14    16    17    1
    15    17    18    1
    16    17    19    1
    17    11    12   ar
    18    12    13   ar
    19    13     8   ar
    20     6     1   ar
@<TRIPOS>MOLECULE
*****
 19 20 0 0 0
SMALL
GASTEIGER

@<TRIPOS>ATOM
      1 C         141.7272  142.8097  163.9992 C.ar    1  UNL1        0.1426
      2 C         143.0858  142.2269  163.7448 C.ar    1  UNL1        0.0372
      3 C         144.2285  143.1237  163.3706 C.ar    1  UNL1        0.0031
      4 C         144.0127  144.6033  163.2508 C.ar    1  UNL1       -0.0001
      5 C         142.6542  145.1861  163.5053 C.ar    1  UNL1        0.0001
      6 C         141.5114  144.2893  163.8795 C.ar    1  UNL1        0.0284
      7 O         140.5846  141.9129  164.3734 O.3     1  UNL1       -0.4538
      8 C         139.9219  140.7910  168.6806 C.ar    1  UNL1        0.0254
      9 C         139.4319  139.8892  167.5867 C.ar    1  UNL1        0.0093
     10 C         139.6527  140.2632  166.1510 C.ar    1  UNL1        0.0380
     11 C         140.3637  141.5390  165.8091 C.ar    1  UNL1        0.1453
     12 C         140.8537  142.4407  166.9030 C.ar    1  UNL1        0.0380
     13 C         140.6329  142.0668  168.3387 C.ar    1  UNL1        0.0093
     14 C         140.7372  140.7542  171.1471 C.3     1  UNL1        0.0742
     15 S         139.7010  140.4170  170.1163 S.3     1  UNL1       -0.1127
     16 C         140.1529  144.8721  164.1339 C.3     1  UNL1        0.1023
     17 N         139.1934  145.0622  162.9967 N.3     1  UNL1       -0.2664
     18 C         139.5295  146.0078  161.8820 C.3     1  UNL1        0.0899
     19 C         137.8978  144.3067  162.9743 C.3     1  UNL1        0.0899
@<TRIPOS>BOND
     1    14    15    1
     2    15     8    1
     3     8     9   ar
     4     9    10   ar
     5    10    11   ar
     6    11     7    1
     7     7     1    1
     8     1     2   ar
     9     2     3   ar
    10     3     4   ar
    11     4     5   ar
    12     5     6   ar
    13     6    16    1
    14    16    17    1
    15    17    18    1
    16    17    19    1
    17    11    12   ar
    18    12    13   ar
    19    13     8   ar
    20     6     1   ar
@<TRIPOS>MOLECULE
*****
 19 20 0 0 0
SMALL
GASTEIGER

@<TRIPOS>ATOM
      1 C         140.8380  139.8979  166.5256 C.ar    1  UNL1        0.1426
      2 C         141.2857  139.1443  165.3083 C.ar    1  UNL1        0.0372
      3 C         142.5645  138.3610  165.3394 C.ar    1  UNL1        0.0031
      4 C         143.3957  138.3313  166.5878 C.ar    1  UNL1       -0.0001
      5 C         142.9480  139.0848  167.8050 C.ar    1  UNL1        0.0001
      6 C         141.6691  139.8682  167.7739 C.ar    1  UNL1        0.0284
      7 O         139.5592  140.6812  166.4945 O.3     1  UNL1       -0.4538
      8 C         139.0673  144.0709  163.5759 C.ar    1  UNL1        0.0254
      9 C         140.2864  144.0023  164.4471 C.ar    1  UNL1        0.0093
     10 C         140.4503  142.8724  165.4199 C.ar    1  UNL1        0.0380
     11 C         139.3952  141.8111  165.5216 C.ar    1  UNL1        0.1453
     12 C         138.1761  141.8798  164.6504 C.ar    1  UNL1        0.0380
     13 C         138.0121  143.0097  163.6776 C.ar    1  UNL1        0.0093
     14 C         140.1077  145.9465  162.1097 C.3     1  UNL1        0.0742
     15 S         138.9033  145.2008  162.6030 S.3     1  UNL1       -0.1127
     16 C         141.2215  140.6218  168.9911 C.3     1  UNL1        0.1023
     17 N         141.5867  142.0674  169.1547 N.3     1  UNL1       -0.2664
     18 C         143.0230  142.4631  169.3284 C.3     1  UNL1        0.0899
     19 C         140.5155  143.1174  169.1445 C.3     1  UNL1        0.0899
@<TRIPOS>BOND
     1    14    15    1
     2    15     8    1
     3     8     9   ar
     4     9    10   ar
     5    10    11   ar
     6    11     7    1
     7     7     1    1
     8     1     2   ar
     9     2     3   ar
    10     3     4   ar
    11     4     5   ar
    12     5     6   ar
    13     6    16    1
    14    16    17    1
    15    17    18    1
    16    17    19    1
    17    11    12   ar
    18    12    13   ar
    19    13     8   ar
    20     6     1   ar
@<TRIPOS>MOLECULE
*****
 19 20 0 0 0
SMALL
GASTEIGER

@<TRIPOS>ATOM
      1 C         140.4398  139.9933  168.0840 C.ar    1  UNL1        0.1426
      2 C         139.6665  140.4005  169.3032 C.ar    1  UNL1        0.0372
      3 C         140.3883  140.7010  170.5833 C.ar    1  UNL1        0.0031
      4 C         141.8832  140.5944  170.6443 C.ar    1  UNL1       -0.0001
      5 C         142.6565  140.1872  169.4252 C.ar    1  UNL1        0.0001
      6 C         141.9347  139.8866  168.1450 C.ar    1  UNL1        0.0284
      7 O         139.7180  139.6927  166.8039 O.3     1  UNL1       -0.4538
      8 C         138.3920  143.0567  164.1251 C.ar    1  UNL1        0.0254
      9 C         137.8465  141.6746  163.9195 C.ar    1  UNL1        0.0093
     10 C         138.2885  140.5533  164.8124 C.ar    1  UNL1        0.0380
     11 C         139.2760  140.8140  165.9109 C.ar    1  UNL1        0.1453
     12 C         139.8216  142.1961  166.1165 C.ar    1  UNL1        0.0380
     13 C         139.3796  143.3174  165.2236 C.ar    1  UNL1        0.0093
     14 C         138.9681  145.0864  162.6092 C.3     1  UNL1        0.0742
     15 S         137.9501  144.1780  163.2322 S.3     1  UNL1       -0.1127
     16 C         142.7080  139.4795  166.9258 C.3     1  UNL1        0.1023
     17 N         142.9173  140.4585  165.8088 N.3     1  UNL1       -0.2664
     18 C         142.6882  140.0356  164.3881 C.3     1  UNL1        0.0899
     19 C         143.3558  141.8604  166.1126 C.3     1  UNL1        0.0899
@<TRIPOS>BOND
     1    14    15    1
     2    15     8    1
     3     8     9   ar
     4     9    10   ar
     5    10    11   ar
     6    11     7    1
     7     7     1    1
     8     1     2   ar
     9     2     3   ar
    10     3     4   ar
    11     4     5   ar
    12     5     6   ar
    13     6    16    1
    14    16    17    1
    15    17    18    1
    16    17    19    1
    17    11    12   ar
    18    12    13   ar
    19    13     8   ar
    20     6     1   ar
@<TRIPOS>MOLECULE
*****
 19 20 0 0 0
SMALL
GASTEIGER

@<TRIPOS>ATOM
      1 C         140.0147  140.8821  166.4511 C.ar    1  UNL1        0.1426
      2 C         139.3211  140.1647  165.3311 C.ar    1  UNL1        0.0372
      3 C         138.3003  139.1086  165.6351 C.ar    1  UNL1        0.0031
      4 C         137.9729  138.7699  167.0592 C.ar    1  UNL1       -0.0001
      5 C         138.6663  139.4871  168.1792 C.ar    1  UNL1        0.0001
      6 C         139.6873  140.5433  167.8752 C.ar    1  UNL1        0.0284
      7 O         141.0355  141.9381  166.1471 O.3     1  UNL1       -0.4538
      8 C         140.2241  144.9973  162.9482 C.ar    1  UNL1        0.0254
      9 C         141.4278  144.1080  162.8474 C.ar    1  UNL1        0.0093
     10 C         141.6982  143.0882  163.9137 C.ar    1  UNL1        0.0380
     11 C         140.7651  142.9579  165.0808 C.ar    1  UNL1        0.1453
     12 C         139.5614  143.8473  165.1816 C.ar    1  UNL1        0.0380
     13 C         139.2910  144.8670  164.1153 C.ar    1  UNL1        0.0093
     14 C         140.2140  145.6844  160.4427 C.3     1  UNL1        0.0742
     15 S         139.9537  146.0171  161.8819 S.3     1  UNL1       -0.1127
     16 C         140.3807  141.2606  168.9953 C.3     1  UNL1        0.1023
     17 N         141.5175  140.6010  169.7183 N.3     1  UNL1       -0.2664
     18 C         142.3522  139.5687  169.0201 C.3     1  UNL1        0.0899
     19 C         141.8196  140.9738  171.1394 C.3     1  UNL1        0.0899
@<TRIPOS>BOND
     1    14    15    1
     2    15     8    1
     3     8     9   ar
     4     9    10   ar
     5    10    11   ar
     6    11     7    1
     7     7     1    1
     8     1     2   ar
     9     2     3   ar
    10     3     4   ar
    11     4     5   ar
    12     5     6   ar
    13     6    16    1
    14    16    17    1
    15    17    18    1
    16    17    19    1
    17    11    12   ar
    18    12    13   ar
    19    13     8   ar
    20     6     1   ar
@<TRIPOS>MOLECULE
*****
 19 20 0 0 0
SMALL
GASTEIGER

@<TRIPOS>ATOM
      1 C         140.0953  142.9323  164.0514 C.ar    1  UNL1        0.1426
      2 C         138.8061  142.1660  164.0225 C.ar    1  UNL1        0.0372
      3 C         137.5729  142.7945  163.4443 C.ar    1  UNL1        0.0031
      4 C         137.6288  144.1892  162.8951 C.ar    1  UNL1       -0.0001
      5 C         138.9179  144.9554  162.9240 C.ar    1  UNL1        0.0001
      6 C         140.1512  144.3270  163.5021 C.ar    1  UNL1        0.0284
      7 O         141.3285  142.3039  164.6295 O.3     1  UNL1       -0.4538
      8 C         142.1040  142.5280  169.0565 C.ar    1  UNL1        0.0254
      9 C         143.2208  142.1848  168.1159 C.ar    1  UNL1        0.0093
     10 C         142.9623  142.1102  166.6402 C.ar    1  UNL1        0.0380
     11 C         141.5870  142.3786  166.1052 C.ar    1  UNL1        0.1453
     12 C         140.4701  142.7218  167.0458 C.ar    1  UNL1        0.0380
     13 C         140.7287  142.7965  168.5215 C.ar    1  UNL1        0.0093
     14 C         141.6941  141.6327  171.4608 C.3     1  UNL1        0.0742
     15 S         142.3625  142.6027  170.5322 S.3     1  UNL1       -0.1127
     16 C         141.4404  145.0933  163.5310 C.3     1  UNL1        0.1023
     17 N         142.5721  144.6914  162.6323 N.3     1  UNL1       -0.2664
     18 C         143.9895  144.8323  163.1024 C.3     1  UNL1        0.0899
     19 C         142.2864  144.1487  161.2635 C.3     1  UNL1        0.0899
@<TRIPOS>BOND
     1    14    15    1
     2    15     8    1
     3     8     9   ar
     4     9    10   ar
     5    10    11   ar
     6    11     7    1
     7     7     1    1
     8     1     2   ar
     9     2     3   ar
    10     3     4   ar
    11     4     5   ar
    12     5     6   ar
    13     6    16    1
    14    16    17    1
    15    17    18    1
    16    17    19    1
    17    11    12   ar
    18    12    13   ar
    19    13     8   ar
    20     6     1   ar
@<TRIPOS>MOLECULE
*****
 19 20 0 0 0
SMALL
GASTEIGER

@<TRIPOS>ATOM
      1 C         140.6540  140.8959  168.7292 C.ar    1  UNL1        0.1426
      2 C         140.0842  142.0887  169.4383 C.ar    1  UNL1        0.0372
      3 C         141.0007  143.1224  170.0226 C.ar    1  UNL1        0.0031
      4 C         142.4870  142.9634  169.8978 C.ar    1  UNL1       -0.0001
      5 C         143.0568  141.7707  169.1888 C.ar    1  UNL1        0.0001
      6 C         142.1403  140.7369  168.6045 C.ar    1  UNL1        0.0284
      7 O         139.7375  139.8622  168.1449 O.3     1  UNL1       -0.4538
      8 C         138.6666  140.0157  163.7769 C.ar    1  UNL1        0.0254
      9 C         138.5960  138.7154  164.5212 C.ar    1  UNL1        0.0093
     10 C         138.9529  138.6642  165.9772 C.ar    1  UNL1        0.0380
     11 C         139.3805  139.9134  166.6889 C.ar    1  UNL1        0.1453
     12 C         139.4512  141.2138  165.9446 C.ar    1  UNL1        0.0380
     13 C         139.0943  141.2649  164.4886 C.ar    1  UNL1        0.0093
     14 C         137.8179  141.3473  161.7138 C.3     1  UNL1        0.0742
     15 S         138.3097  140.0669  162.3209 S.3     1  UNL1       -0.1127
     16 C         142.7101  139.5442  167.8954 C.3     1  UNL1        0.1023
     17 N         142.8623  139.5608  166.4033 N.3     1  UNL1       -0.2664
     18 C         143.1829  140.8442  165.6963 C.3     1  UNL1        0.0899
     19 C         142.6939  138.2939  165.6181 C.3     1  UNL1        0.0899
@<TRIPOS>BOND
     1    14    15    1
     2    15     8    1
     3     8     9   ar
     4     9    10   ar
     5    10    11   ar
     6    11     7    1
     7     7     1    1
     8     1     2   ar
     9     2     3   ar
    10     3     4   ar
    11     4     5   ar
    12     5     6   ar
    13     6    16    1
    14    16    17    1
    15    17    18    1
    16    17    19    1
    17    11    12   ar
    18    12    13   ar
    19    13     8   ar
    20     6     1   ar
@<TRIPOS>MOLECULE
*****
 19 20 0 0 0
SMALL
GASTEIGER

@<TRIPOS>ATOM
      1 C         140.3214  140.0309  165.6146 C.ar    1  UNL1        0.1426
      2 C         139.0137  139.9055  166.3388 C.ar    1  UNL1        0.0372
      3 C         138.2278  138.6308  166.2527 C.ar    1  UNL1        0.0031
      4 C         138.7495  137.4814  165.4423 C.ar    1  UNL1       -0.0001
      5 C         140.0571  137.6067  164.7181 C.ar    1  UNL1        0.0001
      6 C         140.8431  138.8814  164.8042 C.ar    1  UNL1        0.0284
      7 O         141.1072  141.3056  165.7007 O.3     1  UNL1       -0.4538
      8 C         140.2036  144.7004  162.8885 C.ar    1  UNL1        0.0254
      9 C         139.2691  143.5304  162.9766 C.ar    1  UNL1        0.0093
     10 C         139.5703  142.3988  163.9140 C.ar    1  UNL1        0.0380
     11 C         140.8060  142.4372  164.7633 C.ar    1  UNL1        0.1453
     12 C         141.7405  143.6072  164.6753 C.ar    1  UNL1        0.0380
     13 C         141.4393  144.7388  163.7379 C.ar    1  UNL1        0.0093
     14 C         140.2622  145.7193  160.4993 C.3     1  UNL1        0.0742
     15 S         139.9023  145.8320  161.9511 S.3     1  UNL1       -0.1127
     16 C         142.1506  139.0067  164.0801 C.3     1  UNL1        0.1023
     17 N         143.4406  138.9212  164.8408 N.3     1  UNL1       -0.2664
     18 C         143.4778  138.2483  166.1809 C.3     1  UNL1        0.0899
     19 C         144.6933  139.5086  164.2616 C.3     1  UNL1        0.0899
@<TRIPOS>BOND
     1    14    15    1
     2    15     8    1
     3     8     9   ar
     4     9    10   ar
     5    10    11   ar
     6    11     7    1
     7     7     1    1
     8     1     2   ar
     9     2     3   ar
    10     3     4   ar
    11     4     5   ar
    12     5     6   ar
    13     6    16    1
    14    16    17    1
    15    17    18    1
    16    17    19    1
    17    11    12   ar
    18    12    13   ar
    19    13     8   ar
    20     6     1   ar
