@<TRIPOS>MOLECULE
*****
 21 24 0 0 0
SMALL
GASTEIGER

@<TRIPOS>ATOM
      1 C         139.4587  139.5643  166.1558 C.ar    1  UNL1        0.1639
      2 N         139.3881  139.7516  167.6424 N.ar    1  UNL1       -0.2279
      3 C         140.5591  140.5909  168.0600 C.ar    1  UNL1        0.0736
      4 C         141.3533  140.9223  166.8314 C.ar    1  UNL1        0.0241
      5 S         140.6733  140.2878  165.6545 S.2     1  UNL1       -0.0561
      6 C         142.6094  141.7348  166.7207 C.3     1  UNL1        0.0347
      7 C         143.3814  142.4164  167.8112 C.3     1  UNL1        0.0113
      8 C         143.0881  142.4541  169.2818 C.3     1  UNL1        0.0443
      9 C         141.9501  141.8193  170.0250 C.2     1  UNL1        0.0692
     10 N         141.7674  141.9322  171.5096 N.2     1  UNL1       -0.1562
     11 N         140.5290  141.1728  171.8832 N.2     1  UNL1       -0.1510
     12 C         139.9463  140.5906  170.6296 C.2     1  UNL1        0.1070
     13 C         140.8247  140.9901  169.4812 C.3     1  UNL1        0.1212
     14 N         138.4856  138.7894  165.3176 N.pl3   1  UNL1       -0.2782
     15 H         137.8505  138.1709  165.7457 H       1  UNL1        0.1555
     16 C         138.4690  139.2918  160.8457 C.ar    1  UNL1        0.0208
     17 C         139.0968  138.0766  161.4616 C.ar    1  UNL1        0.0045
     18 C         139.1023  137.9092  162.9522 C.ar    1  UNL1        0.0345
     19 C         138.4800  138.9569  163.8270 C.ar    1  UNL1        0.1336
     20 N         137.8522  140.1720  163.2111 N.ar    1  UNL1       -0.2290
     21 C         137.8467  140.3395  161.7205 C.ar    1  UNL1        0.1003
@<TRIPOS>BOND
     1    16    17   ar
     2    17    18   ar
     3    18    19   ar
     4    19    14    1
     5    14     1    1
     6     1     2   ar
     7     2     3   ar
     8     3     4   ar
     9     4     5   ar
    10     4     6    1
    11     6     7    1
    12     7     8    1
    13     8     9    1
    14     9    10    2
    15    10    11    1
    16    11    12    2
    17    12    13    1
    18    19    20   ar
    19    20    21   ar
    20    21    16   ar
    21     5     1   ar
    22    13     9    1
    23    13     3    1
    24    14    15    1
@<TRIPOS>MOLECULE
*****
 21 24 0 0 0
SMALL
GASTEIGER

@<TRIPOS>ATOM
      1 C         140.6935  142.9083  165.8488 C.ar    1  UNL1        0.1639
      2 N         140.3621  143.1085  167.2979 N.ar    1  UNL1       -0.2279
      3 C         140.9704  141.9775  168.0730 C.ar    1  UNL1        0.0736
      4 C         141.6777  141.0783  167.1028 C.ar    1  UNL1        0.0241
      5 S         141.5065  141.6536  165.7281 S.2     1  UNL1       -0.0561
      6 C         142.4391  139.8163  167.3816 C.3     1  UNL1        0.0347
      7 C         142.6812  139.1418  168.6993 C.3     1  UNL1        0.0113
      8 C         142.2218  139.5627  170.0638 C.3     1  UNL1        0.0443
      9 C         141.4067  140.7621  170.4475 C.2     1  UNL1        0.0692
     10 N         141.0098  141.0739  171.8600 N.2     1  UNL1       -0.1562
     11 N         140.2075  142.3413  171.8470 N.2     1  UNL1       -0.1510
     12 C         140.1087  142.8128  170.4264 C.2     1  UNL1        0.1070
     13 C         140.8498  141.8368  169.5615 C.3     1  UNL1        0.1212
     14 N         140.2837  143.8054  164.7185 N.pl3   1  UNL1       -0.2782
     15 H         140.4985  144.7657  164.7495 H       1  UNL1        0.1555
     16 C         138.0724  142.1074  161.1862 C.ar    1  UNL1        0.0208
     17 C         137.5871  141.8310  162.5784 C.ar    1  UNL1        0.0045
     18 C         138.3242  142.3970  163.7558 C.ar    1  UNL1        0.0345
     19 C         139.5466  143.2394  163.5411 C.ar    1  UNL1        0.1336
     20 N         140.0319  143.5158  162.1489 N.ar    1  UNL1       -0.2290
     21 C         139.2947  142.9498  160.9715 C.ar    1  UNL1        0.1003
@<TRIPOS>BOND
     1    16    17   ar
     2    17    18   ar
     3    18    19   ar
     4    19    14    1
     5    14     1    1
     6     1     2   ar
     7     2     3   ar
     8     3     4   ar
     9     4     5   ar
    10     4     6    1
    11     6     7    1
    12     7     8    1
    13     8     9    1
    14     9    10    2
    15    10    11    1
    16    11    12    2
    17    12    13    1
    18    19    20   ar
    19    20    21   ar
    20    21    16   ar
    21     5     1   ar
    22    13     9    1
    23    13     3    1
    24    14    15    1
@<TRIPOS>MOLECULE
*****
 21 24 0 0 0
SMALL
GASTEIGER

@<TRIPOS>ATOM
      1 C         139.2898  139.9225  166.6480 C.ar    1  UNL1        0.1639
      2 N         139.0226  141.1862  165.8855 N.ar    1  UNL1       -0.2279
      3 C         138.6847  140.8125  164.4727 C.ar    1  UNL1        0.0736
      4 C         138.7430  139.3177  164.3621 C.ar    1  UNL1        0.0241
      5 S         139.1170  138.7676  165.7065 S.2     1  UNL1       -0.0561
      6 C         138.4868  138.4582  163.1597 C.3     1  UNL1        0.0347
      7 C         138.1089  138.8812  161.7711 C.3     1  UNL1        0.0113
      8 C         137.8939  140.2682  161.2418 C.3     1  UNL1        0.0443
      9 C         138.0038  141.5747  161.9705 C.2     1  UNL1        0.0692
     10 N         137.7617  142.9054  161.3220 N.2     1  UNL1       -0.1562
     11 N         137.9641  143.9701  162.3591 N.2     1  UNL1       -0.1510
     12 C         138.3311  143.2974  163.6485 C.2     1  UNL1        0.1070
     13 C         138.3557  141.8169  163.4084 C.3     1  UNL1        0.1212
     14 N         139.6641  139.8297  168.0977 N.pl3   1  UNL1       -0.2782
     15 H         139.2687  139.1283  168.6642 H       1  UNL1        0.1555
     16 C         142.5938  142.7573  169.8570 C.ar    1  UNL1        0.0208
     17 C         141.1327  143.0940  169.8115 C.ar    1  UNL1        0.0045
     18 C         140.1562  142.1181  169.2250 C.ar    1  UNL1        0.0345
     19 C         140.6406  140.8055  168.6841 C.ar    1  UNL1        0.1336
     20 N         142.1017  140.4689  168.7297 N.ar    1  UNL1       -0.2290
     21 C         143.0782  141.4448  169.3162 C.ar    1  UNL1        0.1003
@<TRIPOS>BOND
     1    16    17   ar
     2    17    18   ar
     3    18    19   ar
     4    19    14    1
     5    14     1    1
     6     1     2   ar
     7     2     3   ar
     8     3     4   ar
     9     4     5   ar
    10     4     6    1
    11     6     7    1
    12     7     8    1
    13     8     9    1
    14     9    10    2
    15    10    11    1
    16    11    12    2
    17    12    13    1
    18    19    20   ar
    19    20    21   ar
    20    21    16   ar
    21     5     1   ar
    22    13     9    1
    23    13     3    1
    24    14    15    1
@<TRIPOS>MOLECULE
*****
 21 24 0 0 0
SMALL
GASTEIGER

@<TRIPOS>ATOM
      1 C         142.1805  141.7547  165.4445 C.ar    1  UNL1        0.1639
      2 N         141.4926  142.5391  166.5222 N.ar    1  UNL1       -0.2279
      3 C         141.5860  141.7551  167.7976 C.ar    1  UNL1        0.0736
      4 C         142.3316  140.4861  167.5081 C.ar    1  UNL1        0.0241
      5 S         142.6991  140.4859  166.0538 S.2     1  UNL1       -0.0561
      6 C         142.6839  139.3728  168.4496 C.3     1  UNL1        0.0347
      7 C         142.3775  139.2534  169.9131 C.3     1  UNL1        0.0113
      8 C         141.6431  140.2179  170.7966 C.3     1  UNL1        0.0443
      9 C         141.0338  141.5400  170.4348 C.2     1  UNL1        0.0692
     10 N         140.3198  142.4180  171.4193 N.2     1  UNL1       -0.1562
     11 N         139.8531  143.6446  170.6931 N.2     1  UNL1       -0.1510
     12 C         140.2787  143.5248  169.2597 C.2     1  UNL1        0.1070
     13 C         141.0084  142.2241  169.1001 C.3     1  UNL1        0.1212
     14 N         142.3247  142.1667  164.0094 N.pl3   1  UNL1       -0.2782
     15 H         143.0450  141.7848  163.4576 H       1  UNL1        0.1555
     16 C         139.4647  145.1484  162.2262 C.ar    1  UNL1        0.0208
     17 C         140.7805  145.6095  162.7797 C.ar    1  UNL1        0.0045
     18 C         141.7338  144.6156  163.3741 C.ar    1  UNL1        0.0345
     19 C         141.3714  143.1606  163.4150 C.ar    1  UNL1        0.1336
     20 N         140.0557  142.6995  162.8616 N.ar    1  UNL1       -0.2290
     21 C         139.1024  143.6935  162.2672 C.ar    1  UNL1        0.1003
@<TRIPOS>BOND
     1    16    17   ar
     2    17    18   ar
     3    18    19   ar
     4    19    14    1
     5    14     1    1
     6     1     2   ar
     7     2     3   ar
     8     3     4   ar
     9     4     5   ar
    10     4     6    1
    11     6     7    1
    12     7     8    1
    13     8     9    1
    14     9    10    2
    15    10    11    1
    16    11    12    2
    17    12    13    1
    18    19    20   ar
    19    20    21   ar
    20    21    16   ar
    21     5     1   ar
    22    13     9    1
    23    13     3    1
    24    14    15    1
@<TRIPOS>MOLECULE
*****
 21 24 0 0 0
SMALL
GASTEIGER

@<TRIPOS>ATOM
      1 C         140.3112  141.7318  165.1650 C.ar    1  UNL1        0.1639
      2 N         139.6572  141.1599  166.3877 N.ar    1  UNL1       -0.2279
      3 C         140.6019  141.3286  167.5406 C.ar    1  UNL1        0.0736
      4 C         141.8399  142.0047  167.0302 C.ar    1  UNL1        0.0241
      5 S         141.6602  142.2539  165.5620 S.2     1  UNL1       -0.0561
      6 C         143.0739  142.3932  167.7894 C.3     1  UNL1        0.0347
      7 C         143.3748  142.2015  169.2463 C.3     1  UNL1        0.0113
      8 C         142.5159  141.5739  170.3040 C.3     1  UNL1        0.0443
      9 C         141.1440  140.9831  170.1659 C.2     1  UNL1        0.0692
     10 N         140.3846  140.3810  171.3107 N.2     1  UNL1       -0.1562
     11 N         139.0634  139.8997  170.7884 N.2     1  UNL1       -0.1510
     12 C         139.0064  140.2043  169.3207 C.2     1  UNL1        0.1070
     13 C         140.2923  140.8739  168.9360 C.3     1  UNL1        0.1212
     14 N         139.7202  141.7741  163.7870 N.pl3   1  UNL1       -0.2782
     15 H         139.6618  142.6292  163.3025 H       1  UNL1        0.1555
     16 C         138.2137  137.9931  161.8674 C.ar    1  UNL1        0.0208
     17 C         137.6154  139.3158  161.4898 C.ar    1  UNL1        0.0045
     18 C         138.1176  140.5761  162.1297 C.ar    1  UNL1        0.0345
     19 C         139.2180  140.5138  163.1472 C.ar    1  UNL1        0.1336
     20 N         139.8163  139.1911  163.5247 N.ar    1  UNL1       -0.2290
     21 C         139.3141  137.9308  162.8849 C.ar    1  UNL1        0.1003
@<TRIPOS>BOND
     1    16    17   ar
     2    17    18   ar
     3    18    19   ar
     4    19    14    1
     5    14     1    1
     6     1     2   ar
     7     2     3   ar
     8     3     4   ar
     9     4     5   ar
    10     4     6    1
    11     6     7    1
    12     7     8    1
    13     8     9    1
    14     9    10    2
    15    10    11    1
    16    11    12    2
    17    12    13    1
    18    19    20   ar
    19    20    21   ar
    20    21    16   ar
    21     5     1   ar
    22    13     9    1
    23    13     3    1
    24    14    15    1
@<TRIPOS>MOLECULE
*****
 21 24 0 0 0
SMALL
GASTEIGER

@<TRIPOS>ATOM
      1 C         140.5633  141.7838  165.1815 C.ar    1  UNL1        0.1639
      2 N         139.8559  141.1932  166.3650 N.ar    1  UNL1       -0.2279
      3 C         140.7414  141.3586  167.5643 C.ar    1  UNL1        0.0736
      4 C         141.9962  142.0513  167.1219 C.ar    1  UNL1        0.0241
      5 S         141.8861  142.3141  165.6492 S.2     1  UNL1       -0.0561
      6 C         143.1878  142.4432  167.9444 C.3     1  UNL1        0.0347
      7 C         143.4190  142.2391  169.4124 C.3     1  UNL1        0.0113
      8 C         142.5157  141.5927  170.4204 C.3     1  UNL1        0.0443
      9 C         141.1580  140.9908  170.2094 C.2     1  UNL1        0.0692
     10 N         140.3493  140.3698  171.3097 N.2     1  UNL1       -0.1562
     11 N         139.0600  139.8819  170.7185 N.2     1  UNL1       -0.1510
     12 C         139.0718  140.2012  169.2530 C.2     1  UNL1        0.1070
     13 C         140.3684  140.8866  168.9383 C.3     1  UNL1        0.1212
     14 N         140.0398  141.8350  163.7767 N.pl3   1  UNL1       -0.2782
     15 H         139.6498  141.0292  163.3670 H       1  UNL1        0.1555
     16 C         140.2520  145.6718  161.4349 C.ar    1  UNL1        0.0208
     17 C         139.2233  145.5079  162.5143 C.ar    1  UNL1        0.0045
     18 C         139.1526  144.2289  163.2948 C.ar    1  UNL1        0.0345
     19 C         140.1105  143.1139  162.9961 C.ar    1  UNL1        0.1336
     20 N         141.1392  143.2779  161.9167 N.ar    1  UNL1       -0.2290
     21 C         141.2098  144.5569  161.1361 C.ar    1  UNL1        0.1003
@<TRIPOS>BOND
     1    16    17   ar
     2    17    18   ar
     3    18    19   ar
     4    19    14    1
     5    14     1    1
     6     1     2   ar
     7     2     3   ar
     8     3     4   ar
     9     4     5   ar
    10     4     6    1
    11     6     7    1
    12     7     8    1
    13     8     9    1
    14     9    10    2
    15    10    11    1
    16    11    12    2
    17    12    13    1
    18    19    20   ar
    19    20    21   ar
    20    21    16   ar
    21     5     1   ar
    22    13     9    1
    23    13     3    1
    24    14    15    1
@<TRIPOS>MOLECULE
*****
 21 24 0 0 0
SMALL
GASTEIGER

@<TRIPOS>ATOM
      1 C         139.5254  139.4640  167.0165 C.ar    1  UNL1        0.1639
      2 N         140.9015  139.4645  166.4196 N.ar    1  UNL1       -0.2279
      3 C         140.7911  138.9937  164.9997 C.ar    1  UNL1        0.0736
      4 C         139.3467  138.7021  164.7191 C.ar    1  UNL1        0.0241
      5 S         138.5644  138.9928  165.9655 S.2     1  UNL1       -0.0561
      6 C         138.7222  138.2074  163.4481 C.3     1  UNL1        0.0347
      7 C         139.3879  137.8819  162.1439 C.3     1  UNL1        0.0113
      8 C         140.8426  137.9708  161.7886 C.3     1  UNL1        0.0443
      9 C         141.9907  138.4072  162.6497 C.2     1  UNL1        0.0692
     10 N         143.4118  138.4521  162.1717 N.2     1  UNL1       -0.1562
     11 N         144.2671  138.9351  163.3053 N.2     1  UNL1       -0.1510
     12 C         143.3746  139.1886  164.4840 C.2     1  UNL1        0.1070
     13 C         141.9677  138.8624  164.0788 C.3     1  UNL1        0.1212
     14 N         139.1721  139.8644  168.4182 N.pl3   1  UNL1       -0.2782
     15 H         138.3124  139.5848  168.8082 H       1  UNL1        0.1555
     16 C         142.0416  142.3431  170.8414 C.ar    1  UNL1        0.0208
     17 C         141.2294  142.9837  169.7551 C.ar    1  UNL1        0.0045
     18 C         140.2729  142.1574  168.9474 C.ar    1  UNL1        0.0345
     19 C         140.1286  140.6905  169.2259 C.ar    1  UNL1        0.1336
     20 N         140.9408  140.0500  170.3122 N.ar    1  UNL1       -0.2290
     21 C         141.8973  140.8763  171.1199 C.ar    1  UNL1        0.1003
@<TRIPOS>BOND
     1    16    17   ar
     2    17    18   ar
     3    18    19   ar
     4    19    14    1
     5    14     1    1
     6     1     2   ar
     7     2     3   ar
     8     3     4   ar
     9     4     5   ar
    10     4     6    1
    11     6     7    1
    12     7     8    1
    13     8     9    1
    14     9    10    2
    15    10    11    1
    16    11    12    2
    17    12    13    1
    18    19    20   ar
    19    20    21   ar
    20    21    16   ar
    21     5     1   ar
    22    13     9    1
    23    13     3    1
    24    14    15    1
@<TRIPOS>MOLECULE
*****
 21 24 0 0 0
SMALL
GASTEIGER

@<TRIPOS>ATOM
      1 C         141.2882  141.9175  165.5078 C.ar    1  UNL1        0.1639
      2 N         140.7756  142.5433  166.7710 N.ar    1  UNL1       -0.2279
      3 C         141.1906  141.6738  167.9206 C.ar    1  UNL1        0.0736
      4 C         141.9597  140.5105  167.3679 C.ar    1  UNL1        0.0241
      5 S         142.0200  140.6612  165.8767 S.2     1  UNL1       -0.0561
      6 C         142.5850  139.3659  168.1088 C.3     1  UNL1        0.0347
      7 C         142.5957  139.1018  169.5853 C.3     1  UNL1        0.0113
      8 C         141.9837  139.9172  170.6857 C.3     1  UNL1        0.0443
      9 C         141.2099  141.1979  170.5812 C.2     1  UNL1        0.0692
     10 N         140.6454  141.9214  171.7678 N.2     1  UNL1       -0.1562
     11 N         139.9435  143.1503  171.2705 N.2     1  UNL1       -0.1510
     12 C         140.0743  143.1863  169.7766 C.2     1  UNL1        0.1070
     13 C         140.8569  141.9797  169.3506 C.3     1  UNL1        0.1212
     14 N         141.1017  142.4538  164.1194 N.pl3   1  UNL1       -0.2782
     15 H         140.2041  142.7114  163.8077 H       1  UNL1        0.1555
     16 C         144.6450  142.8857  161.3792 C.ar    1  UNL1        0.0208
     17 C         144.4075  143.8953  162.4629 C.ar    1  UNL1        0.0045
     18 C         143.2264  143.7513  163.3763 C.ar    1  UNL1        0.0345
     19 C         142.2827  142.5978  163.2061 C.ar    1  UNL1        0.1336
     20 N         142.5203  141.5882  162.1224 N.ar    1  UNL1       -0.2290
     21 C         143.7014  141.7322  161.2090 C.ar    1  UNL1        0.1003
@<TRIPOS>BOND
     1    16    17   ar
     2    17    18   ar
     3    18    19   ar
     4    19    14    1
     5    14     1    1
     6     1     2   ar
     7     2     3   ar
     8     3     4   ar
     9     4     5   ar
    10     4     6    1
    11     6     7    1
    12     7     8    1
    13     8     9    1
    14     9    10    2
    15    10    11    1
    16    11    12    2
    17    12    13    1
    18    19    20   ar
    19    20    21   ar
    20    21    16   ar
    21     5     1   ar
    22    13     9    1
    23    13     3    1
    24    14    15    1
@<TRIPOS>MOLECULE
*****
 21 24 0 0 0
SMALL
GASTEIGER

@<TRIPOS>ATOM
      1 C         141.6614  141.5091  165.2441 C.ar    1  UNL1        0.1639
      2 N         140.6867  140.9681  166.2477 N.ar    1  UNL1       -0.2279
      3 C         141.2320  141.2422  167.6179 C.ar    1  UNL1        0.0736
      4 C         142.5438  141.9526  167.4611 C.ar    1  UNL1        0.0241
      5 S         142.8092  142.1176  165.9940 S.2     1  UNL1       -0.0561
      6 C         143.4768  142.4404  168.5296 C.3     1  UNL1        0.0347
      7 C         143.3284  142.3384  170.0187 C.3     1  UNL1        0.0113
      8 C         142.2104  141.7232  170.8072 C.3     1  UNL1        0.0443
      9 C         140.9646  141.0582  170.3012 C.2     1  UNL1        0.0692
     10 N         139.9141  140.4779  171.2009 N.2     1  UNL1       -0.1562
     11 N         138.8294  139.9051  170.3375 N.2     1  UNL1       -0.1510
     12 C         139.2096  140.1315  168.9043 C.2     1  UNL1        0.1070
     13 C         140.5293  140.8442  168.8818 C.3     1  UNL1        0.1212
     14 N         141.5143  141.4517  163.7524 N.pl3   1  UNL1       -0.2782
     15 H         140.9137  142.0818  163.2924 H       1  UNL1        0.1555
     16 C         143.8179  138.3999  161.3798 C.ar    1  UNL1        0.0208
     17 C         142.7028  137.9622  162.2825 C.ar    1  UNL1        0.0045
     18 C         141.9349  138.9795  163.0734 C.ar    1  UNL1        0.0345
     19 C         142.2821  140.4345  162.9615 C.ar    1  UNL1        0.1336
     20 N         143.3973  140.8721  162.0587 N.ar    1  UNL1       -0.2290
     21 C         144.1651  139.8548  161.2679 C.ar    1  UNL1        0.1003
@<TRIPOS>BOND
     1    16    17   ar
     2    17    18   ar
     3    18    19   ar
     4    19    14    1
     5    14     1    1
     6     1     2   ar
     7     2     3   ar
     8     3     4   ar
     9     4     5   ar
    10     4     6    1
    11     6     7    1
    12     7     8    1
    13     8     9    1
    14     9    10    2
    15    10    11    1
    16    11    12    2
    17    12    13    1
    18    19    20   ar
    19    20    21   ar
    20    21    16   ar
    21     5     1   ar
    22    13     9    1
    23    13     3    1
    24    14    15    1
