@<TRIPOS>MOLECULE
*****
 34 37 0 0 0
SMALL
GASTEIGER

@<TRIPOS>ATOM
      1 C         138.5266  139.9099  164.4159 C.ar    1  UNL1        0.1377
      2 C         138.8325  138.7242  163.5495 C.ar    1  UNL1        0.1397
      3 N         138.5952  138.7952  162.0701 N.ar    1  UNL1       -0.2027
      4 C         138.0521  140.0518  161.4571 C.ar    1  UNL1        0.2367
      5 N         137.7463  141.2375  162.3234 N.ar    1  UNL1       -0.1828
      6 C         137.9835  141.1665  163.8029 C.ar    1  UNL1        0.2339
      7 C         139.9150  140.7566  168.0360 C.3     1  UNL1        0.1109
      8 N         139.6778  140.8276  166.5567 N.am    1  UNL1       -0.2990
      9 C         138.7639  139.8389  165.8953 C.2     1  UNL1        0.2532
     10 O         138.0873  138.7792  166.7134 O.2     1  UNL1       -0.2699
     11 H         140.1219  141.5231  166.0197 H       1  UNL1        0.1498
     12 N         139.3756  137.4675  164.1625 N.pl3   1  UNL1       -0.3178
     13 H         138.8011  136.9123  164.7379 H       1  UNL1        0.1482
     14 C         140.7939  137.0567  163.8990 C.3     1  UNL1        0.0881
     15 C         141.8662  138.0985  163.7771 C.3     1  UNL1        0.0196
     16 C         142.3457  138.8276  164.9971 C.3     1  UNL1        0.0017
     17 C         143.4180  139.8694  164.8752 C.3     1  UNL1        0.0001
     18 C         144.0107  140.1821  163.5333 C.3     1  UNL1        0.0000
     19 C         144.7227  141.0888  164.4930 C.3     1  UNL1        0.0000
     20 C         145.5272  141.6555  163.3609 C.3     1  UNL1        0.0000
     21 C         144.8152  140.7488  162.4011 C.3     1  UNL1        0.0000
     22 C         143.5313  139.4530  162.3133 C.3     1  UNL1        0.0001
     23 C         142.4590  138.4112  162.4352 C.3     1  UNL1        0.0017
     24 C         137.8149  140.1228  159.9777 C.1     1  UNL1        0.1401
     25 N         137.5777  140.1938  158.4982 N.1     1  UNL1       -0.1876
     26 O         137.6777  142.3522  164.6692 O.3     1  UNL1       -0.4600
     27 C         137.6286  143.7264  164.0698 C.3     1  UNL1        0.2071
     28 C         138.8990  144.4142  163.6659 C.3     1  UNL1        0.0466
     29 C         138.9239  145.2882  162.4471 C.3     1  UNL1        0.0208
     30 C         140.1942  145.9760  162.0433 C.3     1  UNL1        0.0687
     31 N         141.4397  145.7898  162.8583 N.3     1  UNL1       -0.2975
     32 C         141.4148  144.9159  164.0771 C.3     1  UNL1        0.0687
     33 C         140.1445  144.2281  164.4809 C.3     1  UNL1        0.0208
     34 H         141.7310  146.7174  163.1670 H       1  UNL1        0.1232
@<TRIPOS>BOND
     1     7     8    1
     2     8     9   am
     3     9    10    2
     4     9     1    1
     5     1     2   ar
     6     2    12    1
     7    12    14    1
     8    14    15    1
     9    15    16    1
    10    16    17    1
    11    17    18    1
    12    18    19    1
    13    19    20    1
    14    20    21    1
    15    18    22    1
    16    22    23    1
    17     2     3   ar
    18     3     4   ar
    19     4    24    1
    20    24    25    3
    21     4     5   ar
    22     5     6   ar
    23     6    26    1
    24    26    27    1
    25    27    28    1
    26    28    29    1
    27    29    30    1
    28    30    31    1
    29    31    32    1
    30    32    33    1
    31     6     1   ar
    32    33    28    1
    33    23    15    1
    34    21    18    1
    35     8    11    1
    36    12    13    1
    37    31    34    1
@<TRIPOS>MOLECULE
*****
 34 37 0 0 0
SMALL
GASTEIGER

@<TRIPOS>ATOM
      1 C         142.9115  138.5860  164.3579 C.ar    1  UNL1        0.1377
      2 C         144.0999  138.9847  163.5340 C.ar    1  UNL1        0.1397
      3 N         144.1008  138.7442  162.0534 N.ar    1  UNL1       -0.2027
      4 C         142.9133  138.1051  161.3966 C.ar    1  UNL1        0.2367
      5 N         141.7249  137.7064  162.2205 N.ar    1  UNL1       -0.1828
      6 C         141.7240  137.9469  163.7011 C.ar    1  UNL1        0.2339
      7 C         141.8323  139.9042  167.9422 C.3     1  UNL1        0.1109
      8 N         141.8332  139.6638  166.4617 N.am    1  UNL1       -0.2990
      9 C         142.9106  138.8265  165.8384 C.2     1  UNL1        0.2532
     10 O         143.9871  138.2298  166.6958 O.2     1  UNL1       -0.2699
     11 H         141.1267  140.0554  165.8989 H       1  UNL1        0.1498
     12 N         145.2874  139.6239  164.1907 N.pl3   1  UNL1       -0.3178
     13 H         145.8472  139.1024  164.8104 H       1  UNL1        0.1482
     14 C         145.6221  141.0575  163.9033 C.3     1  UNL1        0.0881
     15 C         144.5239  142.0495  163.6582 C.3     1  UNL1        0.0196
     16 C         144.2837  142.5756  162.2742 C.3     1  UNL1        0.0017
     17 C         143.1855  143.5676  162.0291 C.3     1  UNL1        0.0001
     18 C         142.3276  144.0333  163.1680 C.3     1  UNL1        0.0000
     19 C         141.8032  144.7594  161.9646 C.3     1  UNL1        0.0000
     20 C         140.7745  145.4362  162.8213 C.3     1  UNL1        0.0000
     21 C         141.2989  144.7101  164.0246 C.3     1  UNL1        0.0000
     22 C         142.5679  143.5072  164.5519 C.3     1  UNL1        0.0001
     23 C         143.6660  142.5152  164.7970 C.3     1  UNL1        0.0017
     24 C         142.9142  137.8646  159.9161 C.1     1  UNL1        0.1401
     25 N         142.9151  137.6241  158.4354 N.1     1  UNL1       -0.1876
     26 O         140.5356  137.5482  164.5249 O.3     1  UNL1       -0.4600
     27 C         139.1877  137.4130  163.8807 C.3     1  UNL1        0.2071
     28 C         138.5384  138.6052  163.2427 C.3     1  UNL1        0.0466
     29 C         138.3002  139.8491  164.0463 C.3     1  UNL1        0.0208
     30 C         137.6509  141.0413  163.4083 C.3     1  UNL1        0.0687
     31 N         137.2397  140.9895  161.9667 N.3     1  UNL1       -0.2975
     32 C         137.4779  139.7456  161.1631 C.3     1  UNL1        0.0687
     33 C         138.1273  138.5534  161.8011 C.3     1  UNL1        0.0208
     34 H         137.7335  141.7455  161.4924 H       1  UNL1        0.1232
@<TRIPOS>BOND
     1     7     8    1
     2     8     9   am
     3     9    10    2
     4     9     1    1
     5     1     2   ar
     6     2    12    1
     7    12    14    1
     8    14    15    1
     9    15    16    1
    10    16    17    1
    11    17    18    1
    12    18    19    1
    13    19    20    1
    14    20    21    1
    15    18    22    1
    16    22    23    1
    17     2     3   ar
    18     3     4   ar
    19     4    24    1
    20    24    25    3
    21     4     5   ar
    22     5     6   ar
    23     6    26    1
    24    26    27    1
    25    27    28    1
    26    28    29    1
    27    29    30    1
    28    30    31    1
    29    31    32    1
    30    32    33    1
    31     6     1   ar
    32    33    28    1
    33    23    15    1
    34    21    18    1
    35     8    11    1
    36    12    13    1
    37    31    34    1
@<TRIPOS>MOLECULE
*****
 34 37 0 0 0
SMALL
GASTEIGER

@<TRIPOS>ATOM
      1 C         143.0132  138.7551  162.7572 C.ar    1  UNL1        0.1377
      2 C         144.0441  139.5759  163.4739 C.ar    1  UNL1        0.1397
      3 N         144.0313  139.6546  164.9718 N.ar    1  UNL1       -0.2027
      4 C         142.9876  138.9126  165.7529 C.ar    1  UNL1        0.2367
      5 N         141.9568  138.0918  165.0363 N.ar    1  UNL1       -0.1828
      6 C         141.9696  138.0130  163.5383 C.ar    1  UNL1        0.2339
      7 C         141.7468  138.5982  158.9993 C.3     1  UNL1        0.1109
      8 N         141.7340  138.6769  160.4971 N.am    1  UNL1       -0.2990
      9 C         143.0260  138.6763  161.2593 C.2     1  UNL1        0.2532
     10 O         144.3308  138.5970  160.5236 O.2     1  UNL1       -0.2699
     11 H         140.8777  138.7290  160.9800 H       1  UNL1        0.1498
     12 N         145.0877  140.3179  162.6928 N.pl3   1  UNL1       -0.3178
     13 H         145.6541  139.8367  162.0472 H       1  UNL1        0.1482
     14 C         145.2683  141.7931  162.8952 C.3     1  UNL1        0.0881
     15 C         144.1146  142.7268  162.6778 C.3     1  UNL1        0.0196
     16 C         143.4932  142.8473  161.3179 C.3     1  UNL1        0.0017
     17 C         142.3395  143.7810  161.1006 C.3     1  UNL1        0.0001
     18 C         141.8072  144.5941  162.2431 C.3     1  UNL1        0.0000
     19 C         140.9550  144.9715  161.0677 C.3     1  UNL1        0.0000
     20 C         140.1755  145.9145  161.9356 C.3     1  UNL1        0.0000
     21 C         141.0277  145.5371  163.1110 C.3     1  UNL1        0.0000
     22 C         142.4285  144.4736  163.6029 C.3     1  UNL1        0.0001
     23 C         143.5822  143.5399  163.8203 C.3     1  UNL1        0.0017
     24 C         142.9748  138.9913  167.2508 C.1     1  UNL1        0.1401
     25 N         142.9621  139.0701  168.7487 N.1     1  UNL1       -0.1876
     26 O         140.9388  137.1923  162.8216 O.3     1  UNL1       -0.4600
     27 C         139.4896  137.3238  163.1857 C.3     1  UNL1        0.2071
     28 C         138.7229  138.5481  162.7815 C.3     1  UNL1        0.0466
     29 C         138.4499  139.6278  163.7863 C.3     1  UNL1        0.0208
     30 C         137.6832  140.8521  163.3821 C.3     1  UNL1        0.0687
     31 N         137.1896  140.9966  161.9730 N.3     1  UNL1       -0.2975
     32 C         137.4625  139.9169  160.9682 C.3     1  UNL1        0.0687
     33 C         138.2292  138.6927  161.3725 C.3     1  UNL1        0.0208
     34 H         137.6009  141.8537  161.6034 H       1  UNL1        0.1232
@<TRIPOS>BOND
     1     7     8    1
     2     8     9   am
     3     9    10    2
     4     9     1    1
     5     1     2   ar
     6     2    12    1
     7    12    14    1
     8    14    15    1
     9    15    16    1
    10    16    17    1
    11    17    18    1
    12    18    19    1
    13    19    20    1
    14    20    21    1
    15    18    22    1
    16    22    23    1
    17     2     3   ar
    18     3     4   ar
    19     4    24    1
    20    24    25    3
    21     4     5   ar
    22     5     6   ar
    23     6    26    1
    24    26    27    1
    25    27    28    1
    26    28    29    1
    27    29    30    1
    28    30    31    1
    29    31    32    1
    30    32    33    1
    31     6     1   ar
    32    33    28    1
    33    23    15    1
    34    21    18    1
    35     8    11    1
    36    12    13    1
    37    31    34    1
@<TRIPOS>MOLECULE
*****
 34 37 0 0 0
SMALL
GASTEIGER

@<TRIPOS>ATOM
      1 C         143.0178  139.1634  164.6025 C.ar    1  UNL1        0.1377
      2 C         141.9751  138.2026  164.1127 C.ar    1  UNL1        0.1397
      3 N         141.9861  137.7485  162.6832 N.ar    1  UNL1       -0.2027
      4 C         143.0397  138.2551  161.7433 C.ar    1  UNL1        0.2367
      5 N         144.0823  139.2158  162.2331 N.ar    1  UNL1       -0.1828
      6 C         144.0714  139.6700  163.6627 C.ar    1  UNL1        0.2339
      7 C         142.8506  141.5292  167.7844 C.3     1  UNL1        0.1109
      8 N         142.8616  141.0751  166.3549 N.am    1  UNL1       -0.2990
      9 C         143.0069  139.6174  166.0320 C.2     1  UNL1        0.2532
     10 O         143.1412  138.6139  167.1388 O.2     1  UNL1       -0.2699
     11 H         142.7734  141.7338  165.6285 H       1  UNL1        0.1498
     12 N         140.9215  137.6960  165.0525 N.pl3   1  UNL1       -0.3178
     13 H         141.1773  137.1489  165.8300 H       1  UNL1        0.1482
     14 C         139.4782  138.0228  164.8077 C.3     1  UNL1        0.0881
     15 C         139.0729  139.4293  164.4796 C.3     1  UNL1        0.0196
     16 C         138.5026  139.7499  163.1298 C.3     1  UNL1        0.0017
     17 C         138.0974  141.1563  162.8017 C.3     1  UNL1        0.0001
     18 C         138.2623  142.2421  163.8233 C.3     1  UNL1        0.0000
     19 C         137.6755  142.9243  162.6231 C.3     1  UNL1        0.0000
     20 C         137.6891  144.2312  163.3593 C.3     1  UNL1        0.0000
     21 C         138.2759  143.5491  164.5595 C.3     1  UNL1        0.0000
     22 C         138.8326  141.9215  165.1731 C.3     1  UNL1        0.0001
     23 C         139.2379  140.5150  165.5012 C.3     1  UNL1        0.0017
     24 C         143.0506  137.8010  160.3138 C.1     1  UNL1        0.1401
     25 N         143.0616  137.3469  158.8842 N.1     1  UNL1       -0.1876
     26 O         145.1141  140.6307  164.1524 O.3     1  UNL1       -0.4600
     27 C         145.5383  141.7815  163.2888 C.3     1  UNL1        0.2071
     28 C         144.5369  142.8201  162.8783 C.3     1  UNL1        0.0466
     29 C         144.1636  143.9190  163.8285 C.3     1  UNL1        0.0208
     30 C         143.1623  144.9576  163.4180 C.3     1  UNL1        0.0687
     31 N         142.5342  144.8973  162.0571 N.3     1  UNL1       -0.2975
     32 C         142.9075  143.7984  161.1069 C.3     1  UNL1        0.0687
     33 C         143.9088  142.7598  161.5174 C.3     1  UNL1        0.0208
     34 H         142.7557  145.7772  161.5913 H       1  UNL1        0.1232
@<TRIPOS>BOND
     1     7     8    1
     2     8     9   am
     3     9    10    2
     4     9     1    1
     5     1     2   ar
     6     2    12    1
     7    12    14    1
     8    14    15    1
     9    15    16    1
    10    16    17    1
    11    17    18    1
    12    18    19    1
    13    19    20    1
    14    20    21    1
    15    18    22    1
    16    22    23    1
    17     2     3   ar
    18     3     4   ar
    19     4    24    1
    20    24    25    3
    21     4     5   ar
    22     5     6   ar
    23     6    26    1
    24    26    27    1
    25    27    28    1
    26    28    29    1
    27    29    30    1
    28    30    31    1
    29    31    32    1
    30    32    33    1
    31     6     1   ar
    32    33    28    1
    33    23    15    1
    34    21    18    1
    35     8    11    1
    36    12    13    1
    37    31    34    1
@<TRIPOS>MOLECULE
*****
 34 37 0 0 0
SMALL
GASTEIGER

@<TRIPOS>ATOM
      1 C         142.6114  143.9585  163.5902 C.ar    1  UNL1        0.1377
      2 C         143.4209  143.8432  162.3325 C.ar    1  UNL1        0.1397
      3 N         142.8358  144.2778  161.0216 N.ar    1  UNL1       -0.2027
      4 C         141.4412  144.8277  160.9681 C.ar    1  UNL1        0.2367
      5 N         140.6318  144.9430  162.2256 N.ar    1  UNL1       -0.1828
      6 C         141.2169  144.5084  163.5367 C.ar    1  UNL1        0.2339
      7 C         142.9886  142.2095  167.1326 C.3     1  UNL1        0.1109
      8 N         142.4035  142.6441  165.8216 N.am    1  UNL1       -0.2990
      9 C         143.1965  143.5239  164.9012 C.2     1  UNL1        0.2532
     10 O         144.5747  143.9691  165.2918 O.2     1  UNL1       -0.2699
     11 H         141.4990  142.3519  165.5652 H       1  UNL1        0.1498
     12 N         144.8154  143.2933  162.3860 N.pl3   1  UNL1       -0.3178
     13 H         145.5665  143.8795  162.6340 H       1  UNL1        0.1482
     14 C         145.0656  141.8504  162.0615 C.3     1  UNL1        0.0881
     15 C         144.1714  140.7881  162.6288 C.3     1  UNL1        0.0196
     16 C         143.0375  140.2463  161.8099 C.3     1  UNL1        0.0017
     17 C         142.1432  139.1840  162.3772 C.3     1  UNL1        0.0001
     18 C         142.3828  138.6635  163.7634 C.3     1  UNL1        0.0000
     19 C         141.1897  137.9036  163.2642 C.3     1  UNL1        0.0000
     20 C         141.1181  137.1611  164.5657 C.3     1  UNL1        0.0000
     21 C         142.3112  137.9210  165.0649 C.3     1  UNL1        0.0000
     22 C         143.5167  139.2053  164.5823 C.3     1  UNL1        0.0001
     23 C         144.4110  140.2676  164.0150 C.3     1  UNL1        0.0017
     24 C         140.8561  145.2623  159.6571 C.1     1  UNL1        0.1401
     25 N         140.2710  145.6969  158.3461 N.1     1  UNL1       -0.1876
     26 O         140.4074  144.6237  164.7943 O.3     1  UNL1       -0.4600
     27 C         138.9714  144.1903  164.8043 C.3     1  UNL1        0.2071
     28 C         138.6052  142.7980  164.3831 C.3     1  UNL1        0.0466
     29 C         137.7982  142.5789  163.1379 C.3     1  UNL1        0.0208
     30 C         137.4320  141.1866  162.7168 C.3     1  UNL1        0.0687
     31 N         137.8729  140.0134  163.5409 N.3     1  UNL1       -0.2975
     32 C         138.6800  140.2325  164.7861 C.3     1  UNL1        0.0687
     33 C         139.0462  141.6248  165.2072 C.3     1  UNL1        0.0208
     34 H         138.4308  139.4171  162.9296 H       1  UNL1        0.1232
@<TRIPOS>BOND
     1     7     8    1
     2     8     9   am
     3     9    10    2
     4     9     1    1
     5     1     2   ar
     6     2    12    1
     7    12    14    1
     8    14    15    1
     9    15    16    1
    10    16    17    1
    11    17    18    1
    12    18    19    1
    13    19    20    1
    14    20    21    1
    15    18    22    1
    16    22    23    1
    17     2     3   ar
    18     3     4   ar
    19     4    24    1
    20    24    25    3
    21     4     5   ar
    22     5     6   ar
    23     6    26    1
    24    26    27    1
    25    27    28    1
    26    28    29    1
    27    29    30    1
    28    30    31    1
    29    31    32    1
    30    32    33    1
    31     6     1   ar
    32    33    28    1
    33    23    15    1
    34    21    18    1
    35     8    11    1
    36    12    13    1
    37    31    34    1
@<TRIPOS>MOLECULE
*****
 34 37 0 0 0
SMALL
GASTEIGER

@<TRIPOS>ATOM
      1 C         141.0419  144.3449  162.3287 C.ar    1  UNL1        0.1377
      2 C         139.6952  144.6711  161.7542 C.ar    1  UNL1        0.1397
      3 N         139.5756  145.1072  160.3240 N.ar    1  UNL1       -0.2027
      4 C         140.8026  145.2170  159.4683 C.ar    1  UNL1        0.2367
      5 N         142.1493  144.8909  160.0427 N.ar    1  UNL1       -0.1828
      6 C         142.2689  144.4548  161.4730 C.ar    1  UNL1        0.2339
      7 C         142.1201  142.2805  165.5420 C.3     1  UNL1        0.1109
      8 N         142.0005  142.7165  164.1118 N.am    1  UNL1       -0.2990
      9 C         141.1615  143.9089  163.7589 C.2     1  UNL1        0.2532
     10 O         140.4422  144.6652  164.8363 O.2     1  UNL1       -0.2699
     11 H         142.4726  142.2201  163.4048 H       1  UNL1        0.1498
     12 N         138.4681  144.5612  162.6099 N.pl3   1  UNL1       -0.3178
     13 H         138.2718  145.2550  163.2803 H       1  UNL1        0.1482
     14 C         137.5402  143.3944  162.4442 C.3     1  UNL1        0.0881
     15 C         137.8817  142.0709  163.0620 C.3     1  UNL1        0.0196
     16 C         138.0428  140.8577  162.1949 C.3     1  UNL1        0.0017
     17 C         138.3843  139.5342  162.8127 C.3     1  UNL1        0.0001
     18 C         138.5647  139.4239  164.2977 C.3     1  UNL1        0.0000
     19 C         138.7983  138.0377  163.7742 C.3     1  UNL1        0.0000
     20 C         139.0477  137.5521  165.1714 C.3     1  UNL1        0.0000
     21 C         138.8141  138.9383  165.6949 C.3     1  UNL1        0.0000
     22 C         138.4037  140.6372  165.1648 C.3     1  UNL1        0.0001
     23 C         138.0622  141.9607  164.5470 C.3     1  UNL1        0.0017
     24 C         140.6830  145.6531  158.0381 C.1     1  UNL1        0.1401
     25 N         140.5634  146.0892  156.6078 N.1     1  UNL1       -0.1876
     26 O         143.6156  144.1286  162.0475 O.3     1  UNL1       -0.4600
     27 C         144.4529  143.0483  161.4296 C.3     1  UNL1        0.2071
     28 C         144.5625  141.7098  162.0977 C.3     1  UNL1        0.0466
     29 C         145.2539  141.5875  163.4232 C.3     1  UNL1        0.0208
     30 C         145.3635  140.2490  164.0913 C.3     1  UNL1        0.0687
     31 N         144.7817  139.0328  163.4339 N.3     1  UNL1       -0.2975
     32 C         144.0902  139.1550  162.1085 C.3     1  UNL1        0.0687
     33 C         143.9807  140.4935  161.4404 C.3     1  UNL1        0.0208
     34 H         144.1013  138.6427  164.0861 H       1  UNL1        0.1232
@<TRIPOS>BOND
     1     7     8    1
     2     8     9   am
     3     9    10    2
     4     9     1    1
     5     1     2   ar
     6     2    12    1
     7    12    14    1
     8    14    15    1
     9    15    16    1
    10    16    17    1
    11    17    18    1
    12    18    19    1
    13    19    20    1
    14    20    21    1
    15    18    22    1
    16    22    23    1
    17     2     3   ar
    18     3     4   ar
    19     4    24    1
    20    24    25    3
    21     4     5   ar
    22     5     6   ar
    23     6    26    1
    24    26    27    1
    25    27    28    1
    26    28    29    1
    27    29    30    1
    28    30    31    1
    29    31    32    1
    30    32    33    1
    31     6     1   ar
    32    33    28    1
    33    23    15    1
    34    21    18    1
    35     8    11    1
    36    12    13    1
    37    31    34    1
@<TRIPOS>MOLECULE
*****
 34 37 0 0 0
SMALL
GASTEIGER

@<TRIPOS>ATOM
      1 C         138.3437  139.7329  164.0384 C.ar    1  UNL1        0.1377
      2 C         137.6692  140.9569  163.4934 C.ar    1  UNL1        0.1397
      3 N         137.4591  141.1022  162.0153 N.ar    1  UNL1       -0.2027
      4 C         137.9234  140.0234  161.0822 C.ar    1  UNL1        0.2367
      5 N         138.5979  138.7995  161.6271 N.ar    1  UNL1       -0.1828
      6 C         138.8080  138.6542  163.1052 C.ar    1  UNL1        0.2339
      7 C         139.9599  140.0698  167.6473 C.3     1  UNL1        0.1109
      8 N         139.7498  140.2150  166.1692 N.am    1  UNL1       -0.2990
      9 C         138.5538  139.5877  165.5164 C.2     1  UNL1        0.2532
     10 O         137.5679  138.8151  166.3418 O.2     1  UNL1       -0.2699
     11 H         140.3969  140.7221  165.6275 H       1  UNL1        0.1498
     12 N         137.2049  142.0356  164.4265 N.pl3   1  UNL1       -0.3178
     13 H         136.5188  141.8384  165.1045 H       1  UNL1        0.1482
     14 C         137.7858  143.4149  164.3267 C.3     1  UNL1        0.0881
     15 C         139.2410  143.5948  164.0102 C.3     1  UNL1        0.0196
     16 C         139.6718  143.8902  162.6041 C.3     1  UNL1        0.0017
     17 C         141.1270  144.0700  162.2877 C.3     1  UNL1        0.0001
     18 C         142.1513  143.9545  163.3773 C.3     1  UNL1        0.0000
     19 C         142.9380  144.2494  162.1346 C.3     1  UNL1        0.0000
     20 C         144.2093  144.2088  162.9297 C.3     1  UNL1        0.0000
     21 C         143.4226  143.9139  164.1724 C.3     1  UNL1        0.0000
     22 C         141.7205  143.6591  164.7833 C.3     1  UNL1        0.0001
     23 C         140.2653  143.4792  165.0998 C.3     1  UNL1        0.0017
     24 C         137.7133  140.1687  159.6041 C.1     1  UNL1        0.1401
     25 N         137.5032  140.3139  158.1260 N.1     1  UNL1       -0.1876
     26 O         139.4824  137.4302  163.6501 O.3     1  UNL1       -0.4600
     27 C         140.9495  137.2175  163.4212 C.3     1  UNL1        0.2071
     28 C         141.9399  138.2317  163.9119 C.3     1  UNL1        0.0466
     29 C         142.4695  138.1461  165.3126 C.3     1  UNL1        0.0208
     30 C         143.4599  139.1602  165.8032 C.3     1  UNL1        0.0687
     31 N         143.9207  140.2599  164.8931 N.3     1  UNL1       -0.2975
     32 C         143.3911  140.3455  163.4923 C.3     1  UNL1        0.0687
     33 C         142.4007  139.3314  163.0017 C.3     1  UNL1        0.0208
     34 H         144.9346  140.1761  164.8199 H       1  UNL1        0.1232
@<TRIPOS>BOND
     1     7     8    1
     2     8     9   am
     3     9    10    2
     4     9     1    1
     5     1     2   ar
     6     2    12    1
     7    12    14    1
     8    14    15    1
     9    15    16    1
    10    16    17    1
    11    17    18    1
    12    18    19    1
    13    19    20    1
    14    20    21    1
    15    18    22    1
    16    22    23    1
    17     2     3   ar
    18     3     4   ar
    19     4    24    1
    20    24    25    3
    21     4     5   ar
    22     5     6   ar
    23     6    26    1
    24    26    27    1
    25    27    28    1
    26    28    29    1
    27    29    30    1
    28    30    31    1
    29    31    32    1
    30    32    33    1
    31     6     1   ar
    32    33    28    1
    33    23    15    1
    34    21    18    1
    35     8    11    1
    36    12    13    1
    37    31    34    1
@<TRIPOS>MOLECULE
*****
 34 37 0 0 0
SMALL
GASTEIGER

@<TRIPOS>ATOM
      1 C         140.2510  139.1123  164.3112 C.ar    1  UNL1        0.1377
      2 C         141.2179  138.7963  165.4136 C.ar    1  UNL1        0.1397
      3 N         140.8929  139.1756  166.8280 N.ar    1  UNL1       -0.2027
      4 C         139.6010  139.8711  167.1399 C.ar    1  UNL1        0.2367
      5 N         138.6341  140.1872  166.0376 N.ar    1  UNL1       -0.1828
      6 C         138.9592  139.8078  164.6231 C.ar    1  UNL1        0.2339
      7 C         140.9171  139.4017  160.4096 C.3     1  UNL1        0.1109
      8 N         140.5921  139.7811  161.8239 N.am    1  UNL1       -0.2990
      9 C         140.5761  138.7330  162.8969 C.2     1  UNL1        0.2532
     10 O         140.8852  137.3054  162.5554 O.2     1  UNL1       -0.2699
     11 H         140.3892  140.7181  162.0480 H       1  UNL1        0.1498
     12 N         142.5098  138.1008  165.1017 N.pl3   1  UNL1       -0.3178
     13 H         142.5120  137.1404  164.8852 H       1  UNL1        0.1482
     14 C         143.7983  138.8685  165.1196 C.3     1  UNL1        0.0881
     15 C         143.8250  140.2994  164.6705 C.3     1  UNL1        0.0196
     16 C         143.6273  141.4023  165.6677 C.3     1  UNL1        0.0017
     17 C         143.6540  142.8333  165.2186 C.3     1  UNL1        0.0001
     18 C         143.8785  143.1613  163.7722 C.3     1  UNL1        0.0000
     19 C         143.7250  144.4895  164.4523 C.3     1  UNL1        0.0000
     20 C         143.9163  145.1850  163.1370 C.3     1  UNL1        0.0000
     21 C         144.0698  143.8568  162.4570 C.3     1  UNL1        0.0000
     22 C         144.0762  142.0584  162.7750 C.3     1  UNL1        0.0001
     23 C         144.0495  140.6275  163.2241 C.3     1  UNL1        0.0017
     24 C         139.2759  140.2505  168.5542 C.1     1  UNL1        0.1401
     25 N         138.9508  140.6300  169.9686 N.1     1  UNL1       -0.1876
     26 O         137.9923  140.1239  163.5208 O.3     1  UNL1       -0.4600
     27 C         137.4134  141.5027  163.4034 C.3     1  UNL1        0.2071
     28 C         138.2762  142.7028  163.6596 C.3     1  UNL1        0.0466
     29 C         137.9541  143.6296  164.7941 C.3     1  UNL1        0.0208
     30 C         138.8168  144.8296  165.0503 C.3     1  UNL1        0.0687
     31 N         140.0017  145.1027  164.1720 N.3     1  UNL1       -0.2975
     32 C         140.3238  144.1758  163.0375 C.3     1  UNL1        0.0687
     33 C         139.4611  142.9759  162.7813 C.3     1  UNL1        0.0208
     34 H         140.8208  145.1202  164.7795 H       1  UNL1        0.1232
@<TRIPOS>BOND
     1     7     8    1
     2     8     9   am
     3     9    10    2
     4     9     1    1
     5     1     2   ar
     6     2    12    1
     7    12    14    1
     8    14    15    1
     9    15    16    1
    10    16    17    1
    11    17    18    1
    12    18    19    1
    13    19    20    1
    14    20    21    1
    15    18    22    1
    16    22    23    1
    17     2     3   ar
    18     3     4   ar
    19     4    24    1
    20    24    25    3
    21     4     5   ar
    22     5     6   ar
    23     6    26    1
    24    26    27    1
    25    27    28    1
    26    28    29    1
    27    29    30    1
    28    30    31    1
    29    31    32    1
    30    32    33    1
    31     6     1   ar
    32    33    28    1
    33    23    15    1
    34    21    18    1
    35     8    11    1
    36    12    13    1
    37    31    34    1
@<TRIPOS>MOLECULE
*****
 34 37 0 0 0
SMALL
GASTEIGER

@<TRIPOS>ATOM
      1 C         141.0217  141.1462  166.4909 C.ar    1  UNL1        0.1377
      2 C         141.7280  142.2929  165.8305 C.ar    1  UNL1        0.1397
      3 N         140.9855  143.1832  164.8787 N.ar    1  UNL1       -0.2027
      4 C         139.5365  142.9269  164.5874 C.ar    1  UNL1        0.2367
      5 N         138.8302  141.7802  165.2478 N.ar    1  UNL1       -0.1828
      6 C         139.5728  140.8898  166.1996 C.ar    1  UNL1        0.2339
      7 C         142.0573  139.2520  169.8210 C.3     1  UNL1        0.1109
      8 N         141.3147  140.1423  168.8693 N.am    1  UNL1       -0.2990
      9 C         141.7643  140.2559  167.4427 C.2     1  UNL1        0.2532
     10 O         142.9564  139.4791  166.9679 O.2     1  UNL1       -0.2699
     11 H         140.5323  140.6521  169.1809 H       1  UNL1        0.1498
     12 N         143.1770  142.5493  166.1218 N.pl3   1  UNL1       -0.3178
     13 H         143.4628  142.7743  167.0366 H       1  UNL1        0.1482
     14 C         144.1904  142.4629  165.0193 C.3     1  UNL1        0.0881
     15 C         144.0034  141.4771  163.9043 C.3     1  UNL1        0.0196
     16 C         143.3698  141.9129  162.6164 C.3     1  UNL1        0.0017
     17 C         143.1828  140.9271  161.5013 C.3     1  UNL1        0.0001
     18 C         143.6294  139.5056  161.6742 C.3     1  UNL1        0.0000
     19 C         143.0562  139.5668  160.2893 C.3     1  UNL1        0.0000
     20 C         143.3649  138.1115  160.0972 C.3     1  UNL1        0.0000
     21 C         143.9381  138.0503  161.4821 C.3     1  UNL1        0.0000
     22 C         144.2629  139.0699  162.9621 C.3     1  UNL1        0.0001
     23 C         144.4499  140.0556  164.0771 C.3     1  UNL1        0.0017
     24 C         138.7939  143.8172  163.6357 C.1     1  UNL1        0.1401
     25 N         138.0513  144.7075  162.6838 N.1     1  UNL1       -0.1876
     26 O         138.8664  139.7432  166.8600 O.3     1  UNL1       -0.4600
     27 C         138.3730  138.5913  166.0356 C.3     1  UNL1        0.2071
     28 C         139.0897  138.2104  164.7741 C.3     1  UNL1        0.0466
     29 C         140.4012  137.4861  164.8461 C.3     1  UNL1        0.0208
     30 C         141.1178  137.1053  163.5846 C.3     1  UNL1        0.0687
     31 N         140.5229  137.4488  162.2512 N.3     1  UNL1       -0.2975
     32 C         139.2114  138.1731  162.1792 C.3     1  UNL1        0.0687
     33 C         138.4948  138.5539  163.4407 C.3     1  UNL1        0.0208
     34 H         140.4020  136.5701  161.7475 H       1  UNL1        0.1232
@<TRIPOS>BOND
     1     7     8    1
     2     8     9   am
     3     9    10    2
     4     9     1    1
     5     1     2   ar
     6     2    12    1
     7    12    14    1
     8    14    15    1
     9    15    16    1
    10    16    17    1
    11    17    18    1
    12    18    19    1
    13    19    20    1
    14    20    21    1
    15    18    22    1
    16    22    23    1
    17     2     3   ar
    18     3     4   ar
    19     4    24    1
    20    24    25    3
    21     4     5   ar
    22     5     6   ar
    23     6    26    1
    24    26    27    1
    25    27    28    1
    26    28    29    1
    27    29    30    1
    28    30    31    1
    29    31    32    1
    30    32    33    1
    31     6     1   ar
    32    33    28    1
    33    23    15    1
    34    21    18    1
    35     8    11    1
    36    12    13    1
    37    31    34    1
