@<TRIPOS>MOLECULE
*****
 32 34 0 0 0
SMALL
GASTEIGER

@<TRIPOS>ATOM
      1 C         140.5277  141.7917  166.1560 C.ar    1  UNL1        0.1094
      2 N         141.2252  142.2308  167.4093 N.ar    1  UNL1       -0.1680
      3 N         140.6616  141.4421  168.5540 N.ar    1  UNL1       -0.2394
      4 C         139.6159  140.5155  168.0082 C.ar    1  UNL1        0.1280
      5 N         138.7968  139.5435  168.8046 N.pl3   1  UNL1       -0.3427
      6 C         139.5331  140.7315  166.5261 C.ar    1  UNL1        0.1032
      7 H         138.9244  139.4741  169.7783 H       1  UNL1        0.1437
      8 H         138.1316  138.9749  168.3535 H       1  UNL1        0.1437
      9 C         140.9116  145.1957  160.1965 C.ar    1  UNL1        0.1401
     10 C         140.0318  145.9586  161.1419 C.ar    1  UNL1        0.0370
     11 C         139.7790  145.4304  162.5229 C.ar    1  UNL1        0.0046
     12 C         140.4061  144.1393  162.9585 C.ar    1  UNL1        0.0179
     13 C         140.1534  143.6110  164.3394 C.ar    1  UNL1        0.0046
     14 C         140.7805  142.3199  164.7750 C.ar    1  UNL1        0.0387
     15 C         141.6604  141.5570  163.8295 C.ar    1  UNL1        0.1003
     16 N         141.9131  142.0852  162.4486 N.ar    1  UNL1       -0.2437
     17 C         141.2860  143.3764  162.0130 C.ar    1  UNL1        0.0843
     18 C         141.5387  143.9046  160.6321 C.ar    1  UNL1        0.0560
     19 O         141.1644  145.7240  158.8155 O.3     1  UNL1       -0.4754
     20 C         139.9441  146.4807  156.6503 C.3     1  UNL1        0.0512
     21 C         140.1798  145.4527  157.7169 C.3     1  UNL1        0.2055
     22 C         138.6167  140.0136  165.5803 C.2     1  UNL1        0.2470
     23 N         137.7506  140.7946  164.6370 N.am    1  UNL1       -0.3252
     24 O         138.5664  138.5143  165.5777 O.2     1  UNL1       -0.2702
     25 H         137.7836  141.7785  164.6387 H       1  UNL1        0.1453
     26 H         137.1491  140.3233  164.0163 H       1  UNL1        0.1453
     27 C         141.0718  141.5593  169.9920 C.3     1  UNL1        0.1147
     28 C         140.0140  142.6005  170.2089 C.3     1  UNL1        0.0270
     29 C         142.1296  140.5181  169.7752 C.3     1  UNL1        0.0270
     30 C         141.4820  141.6765  171.4300 C.3     1  UNL1        0.1594
     31 O         142.3617  140.6297  172.0468 O.3     1  UNL1       -0.3800
     32 H         141.8842  139.7861  172.0824 H       1  UNL1        0.2105
@<TRIPOS>BOND
     1    20    21    1
     2    21    19    1
     3    19     9    1
     4     9    10   ar
     5    10    11   ar
     6    11    12   ar
     7    12    13   ar
     8    13    14   ar
     9    14     1    1
    10     1     2   ar
    11     2     3   ar
    12     3    27    1
    13    27    28    1
    14    27    29    1
    15    27    30    1
    16    30    31    1
    17     3     4   ar
    18     4     5    1
    19     4     6   ar
    20     6    22    1
    21    22    23   am
    22    22    24    2
    23    14    15   ar
    24    15    16   ar
    25    16    17   ar
    26    17    18   ar
    27    18     9   ar
    28    17    12   ar
    29     6     1   ar
    30    31    32    1
    31     5     7    1
    32     5     8    1
    33    23    25    1
    34    23    26    1
@<TRIPOS>MOLECULE
*****
 32 34 0 0 0
SMALL
GASTEIGER

@<TRIPOS>ATOM
      1 C         139.5482  140.9176  166.0508 C.ar    1  UNL1        0.1094
      2 N         140.4683  141.9431  166.6439 N.ar    1  UNL1       -0.1680
      3 N         140.6573  141.6124  168.0948 N.ar    1  UNL1       -0.2394
      4 C         139.8541  140.3825  168.3983 C.ar    1  UNL1        0.1280
      5 N         139.7539  139.7015  169.7311 N.pl3   1  UNL1       -0.3427
      6 C         139.1685  139.9530  167.1351 C.ar    1  UNL1        0.1032
      7 H         140.2440  140.0610  170.5056 H       1  UNL1        0.1437
      8 H         139.1980  138.8952  169.8313 H       1  UNL1        0.1437
      9 C         138.5511  140.0247  159.3085 C.ar    1  UNL1        0.1401
     10 C         139.8531  139.3912  159.7005 C.ar    1  UNL1        0.0370
     11 C         140.3129  139.4431  161.1273 C.ar    1  UNL1        0.0046
     12 C         139.4707  140.1285  162.1622 C.ar    1  UNL1        0.0179
     13 C         139.9305  140.1804  163.5891 C.ar    1  UNL1        0.0046
     14 C         139.0884  140.8657  164.6240 C.ar    1  UNL1        0.0387
     15 C         137.7863  141.4992  164.2320 C.ar    1  UNL1        0.1003
     16 N         137.3265  141.4473  162.8052 N.ar    1  UNL1       -0.2437
     17 C         138.1688  140.7619  161.7703 C.ar    1  UNL1        0.0843
     18 C         137.7090  140.7100  160.3434 C.ar    1  UNL1        0.0560
     19 O         138.0913  139.9728  157.8817 O.3     1  UNL1       -0.4754
     20 C         136.2682  141.0418  156.3706 C.3     1  UNL1        0.0512
     21 C         137.4770  141.1851  157.2471 C.3     1  UNL1        0.2055
     22 C         138.2626  138.7674  166.9829 C.2     1  UNL1        0.2470
     23 N         138.3576  137.9027  165.7609 N.am    1  UNL1       -0.3252
     24 O         137.2614  138.4462  168.0529 O.2     1  UNL1       -0.2702
     25 H         139.0146  138.1135  165.0587 H       1  UNL1        0.1453
     26 H         137.7629  137.1245  165.6611 H       1  UNL1        0.1453
     27 C         141.5014  142.3772  169.0707 C.3     1  UNL1        0.1147
     28 C         142.6643  141.4791  168.7689 C.3     1  UNL1        0.0270
     29 C         140.3385  143.2754  169.3725 C.3     1  UNL1        0.0270
     30 C         142.3455  143.1421  170.0466 C.3     1  UNL1        0.1594
     31 O         142.4500  142.6812  171.4702 O.3     1  UNL1       -0.3800
     32 H         141.5855  142.7661  171.9019 H       1  UNL1        0.2105
@<TRIPOS>BOND
     1    20    21    1
     2    21    19    1
     3    19     9    1
     4     9    10   ar
     5    10    11   ar
     6    11    12   ar
     7    12    13   ar
     8    13    14   ar
     9    14     1    1
    10     1     2   ar
    11     2     3   ar
    12     3    27    1
    13    27    28    1
    14    27    29    1
    15    27    30    1
    16    30    31    1
    17     3     4   ar
    18     4     5    1
    19     4     6   ar
    20     6    22    1
    21    22    23   am
    22    22    24    2
    23    14    15   ar
    24    15    16   ar
    25    16    17   ar
    26    17    18   ar
    27    18     9   ar
    28    17    12   ar
    29     6     1   ar
    30    31    32    1
    31     5     7    1
    32     5     8    1
    33    23    25    1
    34    23    26    1
@<TRIPOS>MOLECULE
*****
 32 34 0 0 0
SMALL
GASTEIGER

@<TRIPOS>ATOM
      1 C         140.2202  142.5053  166.0631 C.ar    1  UNL1        0.1094
      2 N         140.9415  142.9196  167.3113 N.ar    1  UNL1       -0.1680
      3 N         140.6919  141.8757  168.3591 N.ar    1  UNL1       -0.2394
      4 C         139.8164  140.8161  167.7584 C.ar    1  UNL1        0.1280
      5 N         139.3195  139.5838  168.4545 N.pl3   1  UNL1       -0.3427
      6 C         139.5248  141.2052  166.3394 C.ar    1  UNL1        0.1032
      7 H         139.5665  139.4149  169.3925 H       1  UNL1        0.1437
      8 H         138.7465  138.9439  167.9734 H       1  UNL1        0.1437
      9 C         141.0355  145.1048  159.7521 C.ar    1  UNL1        0.1401
     10 C         141.9609  143.9371  159.9255 C.ar    1  UNL1        0.0370
     11 C         141.9829  143.1837  161.2224 C.ar    1  UNL1        0.0046
     12 C         141.0796  143.5979  162.3459 C.ar    1  UNL1        0.0179
     13 C         141.1016  142.8445  163.6427 C.ar    1  UNL1        0.0046
     14 C         140.1982  143.2588  164.7662 C.ar    1  UNL1        0.0387
     15 C         139.2727  144.4265  164.5928 C.ar    1  UNL1        0.1003
     16 N         139.2507  145.1799  163.2960 N.ar    1  UNL1       -0.2437
     17 C         140.1542  144.7656  162.1725 C.ar    1  UNL1        0.0843
     18 C         140.1321  145.5190  160.8756 C.ar    1  UNL1        0.0560
     19 O         141.0135  145.8582  158.4552 O.3     1  UNL1       -0.4754
     20 C         142.0415  145.2026  156.1611 C.3     1  UNL1        0.0512
     21 C         142.1930  145.7947  157.5309 C.3     1  UNL1        0.2055
     22 C         138.6854  140.4304  165.3674 C.2     1  UNL1        0.2470
     23 N         137.6420  141.1334  164.5506 N.am    1  UNL1       -0.3252
     24 O         138.8893  138.9524  165.2121 O.2     1  UNL1       -0.2702
     25 H         137.5081  142.1034  164.6525 H       1  UNL1        0.1453
     26 H         137.0911  140.6247  163.9126 H       1  UNL1        0.1453
     27 C         141.2243  141.8889  169.7613 C.3     1  UNL1        0.1147
     28 C         139.9945  142.6140  170.2215 C.3     1  UNL1        0.0270
     29 C         142.4542  141.1638  169.3011 C.3     1  UNL1        0.0270
     30 C         141.7568  141.9021  171.1635 C.3     1  UNL1        0.1594
     31 O         142.1768  140.6196  171.8184 O.3     1  UNL1       -0.3800
     32 H         141.4006  140.0518  171.9449 H       1  UNL1        0.2105
@<TRIPOS>BOND
     1    20    21    1
     2    21    19    1
     3    19     9    1
     4     9    10   ar
     5    10    11   ar
     6    11    12   ar
     7    12    13   ar
     8    13    14   ar
     9    14     1    1
    10     1     2   ar
    11     2     3   ar
    12     3    27    1
    13    27    28    1
    14    27    29    1
    15    27    30    1
    16    30    31    1
    17     3     4   ar
    18     4     5    1
    19     4     6   ar
    20     6    22    1
    21    22    23   am
    22    22    24    2
    23    14    15   ar
    24    15    16   ar
    25    16    17   ar
    26    17    18   ar
    27    18     9   ar
    28    17    12   ar
    29     6     1   ar
    30    31    32    1
    31     5     7    1
    32     5     8    1
    33    23    25    1
    34    23    26    1
@<TRIPOS>MOLECULE
*****
 32 34 0 0 0
SMALL
GASTEIGER

@<TRIPOS>ATOM
      1 C         140.7391  139.8630  166.0559 C.ar    1  UNL1        0.1094
      2 N         139.8927  140.7039  166.9650 N.ar    1  UNL1       -0.1680
      3 N         140.6339  140.8801  168.2571 N.ar    1  UNL1       -0.2394
      4 C         141.9385  140.1481  168.1465 C.ar    1  UNL1        0.1280
      5 N         142.9930  140.0600  169.2097 N.pl3   1  UNL1       -0.3427
      6 C         142.0036  139.5194  166.7861 C.ar    1  UNL1        0.1032
      7 H         142.8579  140.5091  170.0753 H       1  UNL1        0.1437
      8 H         143.8201  139.5532  169.0419 H       1  UNL1        0.1437
      9 C         139.5319  139.1126  159.3306 C.ar    1  UNL1        0.1401
     10 C         140.1025  140.4777  159.5777 C.ar    1  UNL1        0.0370
     11 C         140.4580  140.9007  160.9722 C.ar    1  UNL1        0.0046
     12 C         140.2430  139.9588  162.1196 C.ar    1  UNL1        0.0179
     13 C         140.5986  140.3819  163.5140 C.ar    1  UNL1        0.0046
     14 C         140.3835  139.4399  164.6614 C.ar    1  UNL1        0.0387
     15 C         139.8129  138.0748  164.4143 C.ar    1  UNL1        0.1003
     16 N         139.4574  137.6518  163.0198 N.ar    1  UNL1       -0.2437
     17 C         139.6724  138.5938  161.8724 C.ar    1  UNL1        0.0843
     18 C         139.3169  138.1707  160.4779 C.ar    1  UNL1        0.0560
     19 O         139.1764  138.6896  157.9361 O.3     1  UNL1       -0.4754
     20 C         141.5837  137.8101  157.5105 C.3     1  UNL1        0.0512
     21 C         140.1303  137.8478  157.1415 C.3     1  UNL1        0.2055
     22 C         143.1343  138.6925  166.2501 C.2     1  UNL1        0.2470
     23 N         143.4601  138.7263  164.7863 N.am    1  UNL1       -0.3252
     24 O         143.9396  137.8317  167.1779 O.2     1  UNL1       -0.2702
     25 H         142.9317  139.2912  164.1773 H       1  UNL1        0.1453
     26 H         144.2023  138.1835  164.4346 H       1  UNL1        0.1453
     27 C         140.1548  141.6526  169.4502 C.3     1  UNL1        0.1147
     28 C         140.8432  142.8804  168.9318 C.3     1  UNL1        0.0270
     29 C         139.4664  140.4248  169.9687 C.3     1  UNL1        0.0270
     30 C         139.6757  142.4251  170.6433 C.3     1  UNL1        0.1594
     31 O         140.4016  142.3117  171.9511 O.3     1  UNL1       -0.3800
     32 H         140.3100  141.4092  172.2946 H       1  UNL1        0.2105
@<TRIPOS>BOND
     1    20    21    1
     2    21    19    1
     3    19     9    1
     4     9    10   ar
     5    10    11   ar
     6    11    12   ar
     7    12    13   ar
     8    13    14   ar
     9    14     1    1
    10     1     2   ar
    11     2     3   ar
    12     3    27    1
    13    27    28    1
    14    27    29    1
    15    27    30    1
    16    30    31    1
    17     3     4   ar
    18     4     5    1
    19     4     6   ar
    20     6    22    1
    21    22    23   am
    22    22    24    2
    23    14    15   ar
    24    15    16   ar
    25    16    17   ar
    26    17    18   ar
    27    18     9   ar
    28    17    12   ar
    29     6     1   ar
    30    31    32    1
    31     5     7    1
    32     5     8    1
    33    23    25    1
    34    23    26    1
@<TRIPOS>MOLECULE
*****
 32 34 0 0 0
SMALL
GASTEIGER

@<TRIPOS>ATOM
      1 C         140.9551  140.4738  166.0451 C.ar    1  UNL1        0.1094
      2 N         141.7966  141.0293  167.1556 N.ar    1  UNL1       -0.1680
      3 N         141.0366  140.8672  168.4387 N.ar    1  UNL1       -0.2394
      4 C         139.7254  140.2116  168.1211 C.ar    1  UNL1        0.1280
      5 N         138.6528  139.8607  169.1093 N.pl3   1  UNL1       -0.3427
      6 C         139.6749  139.9684  166.6418 C.ar    1  UNL1        0.1032
      7 H         138.7792  140.0613  170.0648 H       1  UNL1        0.1437
      8 H         137.8226  139.4298  168.8023 H       1  UNL1        0.1437
      9 C         143.2132  139.1337  159.6925 C.ar    1  UNL1        0.1401
     10 C         143.6061  138.0068  160.6012 C.ar    1  UNL1        0.0370
     11 C         143.2330  138.0494  162.0535 C.ar    1  UNL1        0.0046
     12 C         142.4671  139.2190  162.5970 C.ar    1  UNL1        0.0179
     13 C         142.0941  139.2616  164.0493 C.ar    1  UNL1        0.0046
     14 C         141.3281  140.4311  164.5928 C.ar    1  UNL1        0.0387
     15 C         140.9352  141.5581  163.6841 C.ar    1  UNL1        0.1003
     16 N         141.3083  141.5155  162.2319 N.ar    1  UNL1       -0.2437
     17 C         142.0743  140.3458  161.6884 C.ar    1  UNL1        0.0843
     18 C         142.4473  140.3032  160.2361 C.ar    1  UNL1        0.0560
     19 O         143.5863  139.0910  158.2403 O.3     1  UNL1       -0.4754
     20 C         141.3879  137.8978  157.5379 C.3     1  UNL1        0.0512
     21 C         142.8395  138.1919  157.3002 C.3     1  UNL1        0.2055
     22 C         138.5432  139.3317  165.8910 C.2     1  UNL1        0.2470
     23 N         137.7659  140.1302  164.8869 N.am    1  UNL1       -0.3252
     24 O         138.1887  137.8963  166.1442 O.2     1  UNL1       -0.2702
     25 H         137.9985  141.0723  164.7207 H       1  UNL1        0.1453
     26 H         137.0231  139.7122  164.3942 H       1  UNL1        0.1453
     27 C         141.5054  141.2871  169.8002 C.3     1  UNL1        0.1147
     28 C         142.1484  139.9456  169.9926 C.3     1  UNL1        0.0270
     29 C         140.8625  142.6287  169.6079 C.3     1  UNL1        0.0270
     30 C         141.9743  141.7070  171.1617 C.3     1  UNL1        0.1594
     31 O         142.2584  140.6718  172.2095 O.3     1  UNL1       -0.3800
     32 H         141.4335  140.2234  172.4530 H       1  UNL1        0.2105
@<TRIPOS>BOND
     1    20    21    1
     2    21    19    1
     3    19     9    1
     4     9    10   ar
     5    10    11   ar
     6    11    12   ar
     7    12    13   ar
     8    13    14   ar
     9    14     1    1
    10     1     2   ar
    11     2     3   ar
    12     3    27    1
    13    27    28    1
    14    27    29    1
    15    27    30    1
    16    30    31    1
    17     3     4   ar
    18     4     5    1
    19     4     6   ar
    20     6    22    1
    21    22    23   am
    22    22    24    2
    23    14    15   ar
    24    15    16   ar
    25    16    17   ar
    26    17    18   ar
    27    18     9   ar
    28    17    12   ar
    29     6     1   ar
    30    31    32    1
    31     5     7    1
    32     5     8    1
    33    23    25    1
    34    23    26    1
@<TRIPOS>MOLECULE
*****
 32 34 0 0 0
SMALL
GASTEIGER

@<TRIPOS>ATOM
      1 C         140.2749  140.2556  165.8145 C.ar    1  UNL1        0.1094
      2 N         139.7031  141.1671  166.8595 N.ar    1  UNL1       -0.1680
      3 N         140.5462  141.0436  168.0940 N.ar    1  UNL1       -0.2394
      4 C         141.6392  140.0557  167.8119 C.ar    1  UNL1        0.1280
      5 N         142.7115  139.6296  168.7702 N.pl3   1  UNL1       -0.3427
      6 C         141.4715  139.5686  166.4030 C.ar    1  UNL1        0.1032
      7 H         142.7384  140.0079  169.6788 H       1  UNL1        0.1437
      8 H         143.3884  138.9717  168.4907 H       1  UNL1        0.1437
      9 C         138.7495  140.2534  159.1120 C.ar    1  UNL1        0.1401
     10 C         139.8813  141.2067  159.3577 C.ar    1  UNL1        0.0370
     11 C         140.4127  141.3977  160.7473 C.ar    1  UNL1        0.0046
     12 C         139.8124  140.6356  161.8912 C.ar    1  UNL1        0.0179
     13 C         140.3438  140.8267  163.2809 C.ar    1  UNL1        0.0046
     14 C         139.7435  140.0645  164.4248 C.ar    1  UNL1        0.0387
     15 C         138.6117  139.1112  164.1792 C.ar    1  UNL1        0.1003
     16 N         138.0802  138.9201  162.7895 N.ar    1  UNL1       -0.2437
     17 C         138.6806  139.6823  161.6456 C.ar    1  UNL1        0.0843
     18 C         138.1492  139.4912  160.2559 C.ar    1  UNL1        0.0560
     19 O         138.2181  140.0623  157.7223 O.3     1  UNL1       -0.4754
     20 C         137.5568  142.0748  156.2182 C.3     1  UNL1        0.0512
     21 C         137.1726  140.9937  157.1845 C.3     1  UNL1        0.2055
     22 C         142.3467  138.5701  165.7053 C.2     1  UNL1        0.2470
     23 N         141.7354  137.5320  164.8117 N.am    1  UNL1       -0.3252
     24 O         143.8334  138.6096  165.9012 O.2     1  UNL1       -0.2702
     25 H         140.7597  137.5060  164.6831 H       1  UNL1        0.1453
     26 H         142.3099  136.8766  164.3538 H       1  UNL1        0.1453
     27 C         140.3338  141.7788  169.3840 C.3     1  UNL1        0.1147
     28 C         141.2471  142.8711  168.9120 C.3     1  UNL1        0.0270
     29 C         139.4204  140.6865  169.8561 C.3     1  UNL1        0.0270
     30 C         140.1213  142.5139  170.6741 C.3     1  UNL1        0.1594
     31 O         140.6723  141.9580  171.9537 O.3     1  UNL1       -0.3800
     32 H         140.2215  141.1255  172.1651 H       1  UNL1        0.2105
@<TRIPOS>BOND
     1    20    21    1
     2    21    19    1
     3    19     9    1
     4     9    10   ar
     5    10    11   ar
     6    11    12   ar
     7    12    13   ar
     8    13    14   ar
     9    14     1    1
    10     1     2   ar
    11     2     3   ar
    12     3    27    1
    13    27    28    1
    14    27    29    1
    15    27    30    1
    16    30    31    1
    17     3     4   ar
    18     4     5    1
    19     4     6   ar
    20     6    22    1
    21    22    23   am
    22    22    24    2
    23    14    15   ar
    24    15    16   ar
    25    16    17   ar
    26    17    18   ar
    27    18     9   ar
    28    17    12   ar
    29     6     1   ar
    30    31    32    1
    31     5     7    1
    32     5     8    1
    33    23    25    1
    34    23    26    1
@<TRIPOS>MOLECULE
*****
 32 34 0 0 0
SMALL
GASTEIGER

@<TRIPOS>ATOM
      1 C         141.6493  142.0485  165.9128 C.ar    1  UNL1        0.1094
      2 N         141.0408  142.5543  167.1871 N.ar    1  UNL1       -0.1680
      3 N         141.4395  141.6226  168.2930 N.ar    1  UNL1       -0.2394
      4 C         142.2946  140.5411  167.7022 C.ar    1  UNL1        0.1280
      5 N         142.9117  139.3971  168.4509 N.pl3   1  UNL1       -0.3427
      6 C         142.4243  140.8042  166.2311 C.ar    1  UNL1        0.1032
      7 H         142.7683  139.3092  169.4209 H       1  UNL1        0.1437
      8 H         143.4601  138.7342  167.9723 H       1  UNL1        0.1437
      9 C         140.0681  144.0326  159.5243 C.ar    1  UNL1        0.1401
     10 C         139.1944  142.8759  159.9096 C.ar    1  UNL1        0.0370
     11 C         139.3359  142.2477  161.2643 C.ar    1  UNL1        0.0046
     12 C         140.3511  142.7763  162.2338 C.ar    1  UNL1        0.0179
     13 C         140.4926  142.1481  163.5886 C.ar    1  UNL1        0.0046
     14 C         141.5078  142.6767  164.5580 C.ar    1  UNL1        0.0387
     15 C         142.3816  143.8335  164.1727 C.ar    1  UNL1        0.1003
     16 N         142.2401  144.4616  162.8180 N.ar    1  UNL1       -0.2437
     17 C         141.2248  143.9330  161.8485 C.ar    1  UNL1        0.0843
     18 C         141.0833  144.5612  160.4937 C.ar    1  UNL1        0.0560
     19 O         139.9266  144.6608  158.1695 O.3     1  UNL1       -0.4754
     20 C         141.9839  145.8582  157.1285 C.3     1  UNL1        0.0512
     21 C         140.6689  145.9237  157.8472 C.3     1  UNL1        0.2055
     22 C         143.1937  139.9697  165.2506 C.2     1  UNL1        0.2470
     23 N         144.1761  140.6190  164.3214 N.am    1  UNL1       -0.3252
     24 O         142.9809  138.4857  165.1992 O.2     1  UNL1       -0.2702
     25 H         144.3159  141.5929  164.3551 H       1  UNL1        0.1453
     26 H         144.6811  140.0712  163.6779 H       1  UNL1        0.1453
     27 C         141.0515  141.7501  169.7362 C.3     1  UNL1        0.1147
     28 C         142.2601  142.6027  169.9860 C.3     1  UNL1        0.0270
     29 C         139.8428  140.8976  169.4865 C.3     1  UNL1        0.0270
     30 C         140.6633  141.8776  171.1795 C.3     1  UNL1        0.1594
     31 O         140.7230  140.6800  172.0808 O.3     1  UNL1       -0.3800
     32 H         140.0669  140.0260  171.7934 H       1  UNL1        0.2105
@<TRIPOS>BOND
     1    20    21    1
     2    21    19    1
     3    19     9    1
     4     9    10   ar
     5    10    11   ar
     6    11    12   ar
     7    12    13   ar
     8    13    14   ar
     9    14     1    1
    10     1     2   ar
    11     2     3   ar
    12     3    27    1
    13    27    28    1
    14    27    29    1
    15    27    30    1
    16    30    31    1
    17     3     4   ar
    18     4     5    1
    19     4     6   ar
    20     6    22    1
    21    22    23   am
    22    22    24    2
    23    14    15   ar
    24    15    16   ar
    25    16    17   ar
    26    17    18   ar
    27    18     9   ar
    28    17    12   ar
    29     6     1   ar
    30    31    32    1
    31     5     7    1
    32     5     8    1
    33    23    25    1
    34    23    26    1
@<TRIPOS>MOLECULE
*****
 32 34 0 0 0
SMALL
GASTEIGER

@<TRIPOS>ATOM
      1 C         140.8245  140.6588  165.9198 C.ar    1  UNL1        0.1094
      2 N         140.3387  141.4954  167.0662 N.ar    1  UNL1       -0.1680
      3 N         141.0439  141.0352  168.3075 N.ar    1  UNL1       -0.2394
      4 C         141.9656  139.9141  167.9283 C.ar    1  UNL1        0.1280
      5 N         142.8650  139.1584  168.8610 N.pl3   1  UNL1       -0.3427
      6 C         141.8300  139.6815  166.4526 C.ar    1  UNL1        0.1032
      7 H         142.8841  139.3859  169.8186 H       1  UNL1        0.1437
      8 H         143.4363  138.4349  168.5155 H       1  UNL1        0.1437
      9 C         137.9741  140.2428  159.6787 C.ar    1  UNL1        0.1401
     10 C         137.3341  139.2283  160.5794 C.ar    1  UNL1        0.0370
     11 C         137.7762  139.1086  162.0078 C.ar    1  UNL1        0.0046
     12 C         138.8582  140.0034  162.5354 C.ar    1  UNL1        0.0179
     13 C         139.3003  139.8837  163.9638 C.ar    1  UNL1        0.0046
     14 C         140.3824  140.7785  164.4915 C.ar    1  UNL1        0.0387
     15 C         141.0224  141.7930  163.5908 C.ar    1  UNL1        0.1003
     16 N         140.5804  141.9127  162.1624 N.ar    1  UNL1       -0.2437
     17 C         139.4982  141.0178  161.6347 C.ar    1  UNL1        0.0843
     18 C         139.0561  141.1375  160.2064 C.ar    1  UNL1        0.0560
     19 O         137.5320  140.3624  158.2503 O.3     1  UNL1       -0.4754
     20 C         137.5826  142.6494  157.0186 C.3     1  UNL1        0.0512
     21 C         138.2195  141.3277  157.3308 C.3     1  UNL1        0.2055
     22 C         142.5700  138.6524  165.6507 C.2     1  UNL1        0.2470
     23 N         144.0629  138.7288  165.5271 N.am    1  UNL1       -0.3252
     24 O         141.8170  137.5466  164.9721 O.2     1  UNL1       -0.2702
     25 H         144.5572  139.4545  165.9724 H       1  UNL1        0.1453
     26 H         144.5485  138.0533  165.0007 H       1  UNL1        0.1453
     27 C         140.8599  141.5972  169.6859 C.3     1  UNL1        0.1147
     28 C         141.9754  142.5690  169.4387 C.3     1  UNL1        0.0270
     29 C         139.7443  140.6254  169.9332 C.3     1  UNL1        0.0270
     30 C         140.6757  142.1592  171.0644 C.3     1  UNL1        0.1594
     31 O         139.4763  143.0045  171.3757 O.3     1  UNL1       -0.3800
     32 H         139.5222  143.8302  170.8686 H       1  UNL1        0.2105
@<TRIPOS>BOND
     1    20    21    1
     2    21    19    1
     3    19     9    1
     4     9    10   ar
     5    10    11   ar
     6    11    12   ar
     7    12    13   ar
     8    13    14   ar
     9    14     1    1
    10     1     2   ar
    11     2     3   ar
    12     3    27    1
    13    27    28    1
    14    27    29    1
    15    27    30    1
    16    30    31    1
    17     3     4   ar
    18     4     5    1
    19     4     6   ar
    20     6    22    1
    21    22    23   am
    22    22    24    2
    23    14    15   ar
    24    15    16   ar
    25    16    17   ar
    26    17    18   ar
    27    18     9   ar
    28    17    12   ar
    29     6     1   ar
    30    31    32    1
    31     5     7    1
    32     5     8    1
    33    23    25    1
    34    23    26    1
@<TRIPOS>MOLECULE
*****
 32 34 0 0 0
SMALL
GASTEIGER

@<TRIPOS>ATOM
      1 C         141.9344  141.2532  165.7598 C.ar    1  UNL1        0.1094
      2 N         141.5355  141.7693  167.1106 N.ar    1  UNL1       -0.1680
      3 N         142.0173  140.7916  168.1412 N.ar    1  UNL1       -0.2394
      4 C         142.7138  139.6712  167.4274 C.ar    1  UNL1        0.1280
      5 N         143.3499  138.4755  168.0721 N.pl3   1  UNL1       -0.3427
      6 C         142.6626  139.9564  165.9556 C.ar    1  UNL1        0.1032
      7 H         143.3320  138.3765  169.0514 H       1  UNL1        0.1437
      8 H         143.7854  137.7898  167.5159 H       1  UNL1        0.1437
      9 C         140.2541  145.3003  160.4639 C.ar    1  UNL1        0.1401
     10 C         139.9748  146.0277  161.7456 C.ar    1  UNL1        0.0370
     11 C         140.2550  145.3637  163.0611 C.ar    1  UNL1        0.0046
     12 C         140.8145  143.9724  163.0950 C.ar    1  UNL1        0.0179
     13 C         141.0947  143.3084  164.4105 C.ar    1  UNL1        0.0046
     14 C         141.6542  141.9171  164.4443 C.ar    1  UNL1        0.0387
     15 C         141.9336  141.1897  163.1625 C.ar    1  UNL1        0.1003
     16 N         141.6534  141.8537  161.8470 N.ar    1  UNL1       -0.2437
     17 C         141.0938  143.2451  161.8132 C.ar    1  UNL1        0.0843
     18 C         140.8136  143.9090  160.4977 C.ar    1  UNL1        0.0560
     19 O         139.9739  145.9643  159.1483 O.3     1  UNL1       -0.4754
     20 C         140.3025  145.9818  156.5712 C.3     1  UNL1        0.0512
     21 C         140.7889  145.6090  157.9403 C.3     1  UNL1        0.2055
     22 C         143.2385  139.0961  164.8702 C.2     1  UNL1        0.2470
     23 N         144.6456  139.3211  164.4019 N.am    1  UNL1       -0.3252
     24 O         142.4072  138.0106  164.2531 O.2     1  UNL1       -0.2702
     25 H         145.1913  140.0334  164.8069 H       1  UNL1        0.1453
     26 H         145.0235  138.7563  163.6895 H       1  UNL1        0.1453
     27 C         141.8345  140.9130  169.6250 C.3     1  UNL1        0.1147
     28 C         143.1681  141.5910  169.7339 C.3     1  UNL1        0.0270
     29 C         140.5009  140.2349  169.5162 C.3     1  UNL1        0.0270
     30 C         141.6517  141.0343  171.1089 C.3     1  UNL1        0.1594
     31 O         142.2258  142.2105  171.8416 O.3     1  UNL1       -0.3800
     32 H         143.1943  142.1763  171.7997 H       1  UNL1        0.2105
@<TRIPOS>BOND
     1    20    21    1
     2    21    19    1
     3    19     9    1
     4     9    10   ar
     5    10    11   ar
     6    11    12   ar
     7    12    13   ar
     8    13    14   ar
     9    14     1    1
    10     1     2   ar
    11     2     3   ar
    12     3    27    1
    13    27    28    1
    14    27    29    1
    15    27    30    1
    16    30    31    1
    17     3     4   ar
    18     4     5    1
    19     4     6   ar
    20     6    22    1
    21    22    23   am
    22    22    24    2
    23    14    15   ar
    24    15    16   ar
    25    16    17   ar
    26    17    18   ar
    27    18     9   ar
    28    17    12   ar
    29     6     1   ar
    30    31    32    1
    31     5     7    1
    32     5     8    1
    33    23    25    1
    34    23    26    1
