@<TRIPOS>MOLECULE
*****
 35 38 0 0 0
SMALL
GASTEIGER

@<TRIPOS>ATOM
      1 C         143.6631  141.5817  161.7478 C.3     1  UNL1        0.1493
      2 C         143.7419  142.2512  160.4078 C.3     1  UNL1        0.1040
      3 N         143.8582  141.4241  159.1619 N.3     1  UNL1       -0.2668
      4 C         143.8957  139.9276  159.2559 C.3     1  UNL1        0.0742
      5 C         143.8168  139.2581  160.5958 C.3     1  UNL1        0.0397
      6 C         143.7005  140.0852  161.8418 C.3     1  UNL1        0.1052
      7 N         143.6217  139.4156  163.1818 N.am    1  UNL1       -0.2767
      8 C         144.8400  139.3360  164.0533 C.3     1  UNL1        0.1149
      9 C         142.3247  138.8256  163.6503 C.2     1  UNL1        0.2301
     10 O         141.1064  138.9052  162.7788 O.2     1  UNL1       -0.2745
     11 C         142.2458  138.1561  164.9903 C.3     1  UNL1        0.1116
     12 C         141.8669  138.9508  166.2047 C.ar    1  UNL1       -0.0130
     13 C         142.8682  139.1703  167.2998 C.ar    1  UNL1       -0.0022
     14 C         142.4893  139.9651  168.5142 C.ar    1  UNL1        0.0190
     15 C         141.1091  140.5403  168.6335 C.ar    1  UNL1        0.0862
     16 C         140.1079  140.3208  167.5384 C.ar    1  UNL1        0.0190
     17 C         140.4868  139.5261  166.3240 C.ar    1  UNL1       -0.0022
     18 N         140.7302  141.3350  169.8479 N.ar    1  UNL1       -0.1886
     19 C         139.9371  142.6082  169.8563 C.ar    1  UNL1        0.2258
     20 N         139.7946  143.0562  171.2807 N.ar    1  UNL1       -0.1045
     21 N         140.4997  142.0599  172.1527 N.ar    1  UNL1       -0.0222
     22 N         141.0779  140.9962  171.2671 N.ar    1  UNL1       -0.0385
     23 C         143.9490  143.8537  162.9751 C.3     1  UNL1        0.1741
     24 O         143.5468  142.4088  162.9938 O.3     1  UNL1       -0.3505
     25 C         143.9370  142.0937  157.8219 C.3     1  UNL1        0.0992
     26 C         145.2083  142.0351  157.0278 C.ar    1  UNL1       -0.0062
     27 C         146.4666  142.6353  157.5813 C.ar    1  UNL1       -0.0030
     28 C         147.7379  142.5767  156.7872 C.ar    1  UNL1        0.0036
     29 C         147.7507  141.9178  155.4397 C.ar    1  UNL1        0.0714
     30 C         146.4924  141.3176  154.8863 C.ar    1  UNL1        0.0036
     31 C         145.2212  141.3763  155.6803 C.ar    1  UNL1       -0.0030
     32 C         149.0220  141.8592  154.6456 C.3     1  UNL1        0.4186
     33 F         150.2932  141.8006  153.8516 F       1  UNL1       -0.1659
     34 F         148.2260  141.7262  153.3812 F       1  UNL1       -0.1659
     35 F         149.8179  141.9922  155.9101 F       1  UNL1       -0.1659
@<TRIPOS>BOND
     1    23    24    1
     2     1    24    1
     3     1     2    1
     4     2     3    1
     5     3    25    1
     6    25    26    1
     7    26    27   ar
     8    27    28   ar
     9    28    29   ar
    10    29    32    1
    11    32    33    1
    12    32    34    1
    13    32    35    1
    14    29    30   ar
    15    30    31   ar
    16     3     4    1
    17     4     5    1
    18     5     6    1
    19     6     7    1
    20     7     8    1
    21     7     9   am
    22     9    10    2
    23     9    11    1
    24    11    12    1
    25    12    13   ar
    26    13    14   ar
    27    14    15   ar
    28    15    18    1
    29    18    19   ar
    30    19    20   ar
    31    20    21   ar
    32    21    22   ar
    33    15    16   ar
    34    16    17   ar
    35     6     1    1
    36    17    12   ar
    37    31    26   ar
    38    22    18   ar
@<TRIPOS>MOLECULE
*****
 35 38 0 0 0
SMALL
GASTEIGER

@<TRIPOS>ATOM
      1 C         141.6321  138.0236  161.4834 C.3     1  UNL1        0.1493
      2 C         142.4594  137.7380  160.2653 C.3     1  UNL1        0.1040
      3 N         141.8691  137.9194  158.8983 N.3     1  UNL1       -0.2668
      4 C         140.4515  138.3864  158.7495 C.3     1  UNL1        0.0742
      5 C         139.6242  138.6720  159.9676 C.3     1  UNL1        0.0397
      6 C         140.2145  138.4906  161.3346 C.3     1  UNL1        0.1052
      7 N         139.3871  138.7762  162.5528 N.am    1  UNL1       -0.2767
      8 C         138.7199  137.6511  163.2869 C.3     1  UNL1        0.1149
      9 C         139.2269  140.1869  163.0368 C.2     1  UNL1        0.2301
     10 O         139.8941  141.3120  162.3026 O.2     1  UNL1       -0.2745
     11 C         138.3995  140.4726  164.2549 C.3     1  UNL1        0.1116
     12 C         139.0676  140.8501  165.5437 C.ar    1  UNL1       -0.0130
     13 C         139.0875  139.8826  166.6897 C.ar    1  UNL1       -0.0022
     14 C         139.7556  140.2602  167.9786 C.ar    1  UNL1        0.0190
     15 C         140.4039  141.6053  168.1214 C.ar    1  UNL1        0.0862
     16 C         140.3840  142.5729  166.9753 C.ar    1  UNL1        0.0190
     17 C         139.7159  142.1953  165.6865 C.ar    1  UNL1       -0.0022
     18 N         141.0720  141.9829  169.4102 N.ar    1  UNL1       -0.1886
     19 C         140.7377  141.4411  170.7684 C.ar    1  UNL1        0.2258
     20 N         141.6508  142.0919  171.7647 N.ar    1  UNL1       -0.1045
     21 N         142.5495  143.0359  171.0222 N.ar    1  UNL1       -0.0222
     22 N         142.1918  142.9685  169.5670 N.ar    1  UNL1       -0.0385
     23 C         142.9050  138.9913  163.5312 C.3     1  UNL1        0.1741
     24 O         142.2224  137.8422  162.8504 O.3     1  UNL1       -0.3505
     25 C         142.6965  137.6338  157.6801 C.3     1  UNL1        0.0992
     26 C         142.5190  136.3418  156.9389 C.ar    1  UNL1       -0.0062
     27 C         143.3694  135.1556  157.2850 C.ar    1  UNL1       -0.0030
     28 C         143.1919  133.8637  156.5439 C.ar    1  UNL1        0.0036
     29 C         142.1639  133.7579  155.4566 C.ar    1  UNL1        0.0714
     30 C         141.3135  134.9441  155.1105 C.ar    1  UNL1        0.0036
     31 C         141.4910  136.2360  155.8517 C.ar    1  UNL1       -0.0030
     32 C         141.9863  132.4660  154.7154 C.3     1  UNL1        0.4186
     33 F         141.8087  131.1740  153.9742 F       1  UNL1       -0.1659
     34 F         143.3634  132.6080  154.1379 F       1  UNL1       -0.1659
     35 F         140.6092  132.3239  155.2929 F       1  UNL1       -0.1659
@<TRIPOS>BOND
     1    23    24    1
     2     1    24    1
     3     1     2    1
     4     2     3    1
     5     3    25    1
     6    25    26    1
     7    26    27   ar
     8    27    28   ar
     9    28    29   ar
    10    29    32    1
    11    32    33    1
    12    32    34    1
    13    32    35    1
    14    29    30   ar
    15    30    31   ar
    16     3     4    1
    17     4     5    1
    18     5     6    1
    19     6     7    1
    20     7     8    1
    21     7     9   am
    22     9    10    2
    23     9    11    1
    24    11    12    1
    25    12    13   ar
    26    13    14   ar
    27    14    15   ar
    28    15    18    1
    29    18    19   ar
    30    19    20   ar
    31    20    21   ar
    32    21    22   ar
    33    15    16   ar
    34    16    17   ar
    35     6     1    1
    36    17    12   ar
    37    31    26   ar
    38    22    18   ar
@<TRIPOS>MOLECULE
*****
 35 38 0 0 0
SMALL
GASTEIGER

@<TRIPOS>ATOM
      1 C         141.8129  138.9047  160.2765 C.3     1  UNL1        0.1493
      2 C         142.6653  138.2019  159.2620 C.3     1  UNL1        0.1040
      3 N         142.0729  137.7733  157.9523 N.3     1  UNL1       -0.2668
      4 C         140.6280  138.0476  157.6571 C.3     1  UNL1        0.0742
      5 C         139.7756  138.7504  158.6716 C.3     1  UNL1        0.0397
      6 C         140.3681  139.1790  159.9813 C.3     1  UNL1        0.1052
      7 N         139.5156  139.8819  160.9959 N.am    1  UNL1       -0.2767
      8 C         139.2128  141.3426  160.8385 C.3     1  UNL1        0.1149
      9 C         138.9658  139.1241  162.1679 C.2     1  UNL1        0.2301
     10 O         139.2685  137.6635  162.3253 O.2     1  UNL1       -0.2745
     11 C         138.1133  139.8270  163.1824 C.3     1  UNL1        0.1116
     12 C         138.5889  139.9600  164.5988 C.ar    1  UNL1       -0.0130
     13 C         138.0821  139.0194  165.6515 C.ar    1  UNL1       -0.0022
     14 C         138.5577  139.1524  167.0680 C.ar    1  UNL1        0.0190
     15 C         139.5401  140.2260  167.4316 C.ar    1  UNL1        0.0862
     16 C         140.0469  141.1667  166.3787 C.ar    1  UNL1        0.0190
     17 C         139.5713  141.0337  164.9624 C.ar    1  UNL1       -0.0022
     18 N         140.0157  140.3590  168.8479 N.ar    1  UNL1       -0.1886
     19 C         141.2975  140.9997  169.2911 C.ar    1  UNL1        0.2258
     20 N         141.3670  140.9113  170.7868 N.ar    1  UNL1       -0.1045
     21 N         140.1280  140.2160  171.2681 N.ar    1  UNL1       -0.0222
     22 N         139.2929  139.8747  170.0698 N.ar    1  UNL1       -0.0385
     23 C         142.7548  138.3071  162.6229 C.3     1  UNL1        0.1741
     24 O         142.4053  139.3333  161.5862 O.3     1  UNL1       -0.3505
     25 C         142.9254  137.0704  156.9377 C.3     1  UNL1        0.0992
     26 C         142.6976  135.6171  156.6443 C.ar    1  UNL1       -0.0062
     27 C         141.7425  135.2114  155.5611 C.ar    1  UNL1       -0.0030
     28 C         141.5147  133.7581  155.2677 C.ar    1  UNL1        0.0036
     29 C         142.2421  132.7106  156.0575 C.ar    1  UNL1        0.0714
     30 C         143.1971  133.1163  157.1406 C.ar    1  UNL1        0.0036
     31 C         143.4249  134.5696  157.4340 C.ar    1  UNL1       -0.0030
     32 C         142.0143  131.2573  155.7641 C.3     1  UNL1        0.4186
     33 F         141.7865  129.8040  155.4707 F       1  UNL1       -0.1659
     34 F         143.2949  130.9149  156.4660 F       1  UNL1       -0.1659
     35 F         140.7336  131.5997  155.0622 F       1  UNL1       -0.1659
@<TRIPOS>BOND
     1    23    24    1
     2     1    24    1
     3     1     2    1
     4     2     3    1
     5     3    25    1
     6    25    26    1
     7    26    27   ar
     8    27    28   ar
     9    28    29   ar
    10    29    32    1
    11    32    33    1
    12    32    34    1
    13    32    35    1
    14    29    30   ar
    15    30    31   ar
    16     3     4    1
    17     4     5    1
    18     5     6    1
    19     6     7    1
    20     7     8    1
    21     7     9   am
    22     9    10    2
    23     9    11    1
    24    11    12    1
    25    12    13   ar
    26    13    14   ar
    27    14    15   ar
    28    15    18    1
    29    18    19   ar
    30    19    20   ar
    31    20    21   ar
    32    21    22   ar
    33    15    16   ar
    34    16    17   ar
    35     6     1    1
    36    17    12   ar
    37    31    26   ar
    38    22    18   ar
@<TRIPOS>MOLECULE
*****
 35 38 0 0 0
SMALL
GASTEIGER

@<TRIPOS>ATOM
      1 C         139.8629  139.0659  158.9223 C.3     1  UNL1        0.1493
      2 C         140.6995  138.3954  157.8733 C.3     1  UNL1        0.1040
      3 N         142.0967  137.9556  158.1963 N.3     1  UNL1       -0.2668
      4 C         142.6574  138.1862  159.5683 C.3     1  UNL1        0.0742
      5 C         141.8207  138.8566  160.6173 C.3     1  UNL1        0.0397
      6 C         140.4235  139.2965  160.2944 C.3     1  UNL1        0.1052
      7 N         139.5869  139.9670  161.3435 N.am    1  UNL1       -0.2767
      8 C         139.4509  141.4608  161.3527 C.3     1  UNL1        0.1149
      9 C         138.8864  139.1437  162.3834 C.2     1  UNL1        0.2301
     10 O         139.0224  137.6499  162.3742 O.2     1  UNL1       -0.2745
     11 C         138.0498  139.8142  163.4325 C.3     1  UNL1        0.1116
     12 C         138.5785  139.9689  164.8276 C.ar    1  UNL1       -0.0130
     13 C         138.0688  139.0829  165.9254 C.ar    1  UNL1       -0.0022
     14 C         138.5976  139.2376  167.3206 C.ar    1  UNL1        0.0190
     15 C         139.6361  140.2784  167.6179 C.ar    1  UNL1        0.0862
     16 C         140.1458  141.1644  166.5201 C.ar    1  UNL1        0.0190
     17 C         139.6170  141.0097  165.1250 C.ar    1  UNL1       -0.0022
     18 N         140.1649  140.4331  169.0131 N.ar    1  UNL1       -0.1886
     19 C         141.6113  140.4848  169.4071 C.ar    1  UNL1        0.2258
     20 N         141.6805  140.6470  170.8967 N.ar    1  UNL1       -0.1045
     21 N         140.2767  140.6955  171.4233 N.ar    1  UNL1       -0.0222
     22 N         139.3401  140.5633  170.2591 N.ar    1  UNL1       -0.0385
     23 C         138.2386  140.7496  157.7924 C.3     1  UNL1        0.1741
     24 O         138.4657  139.5057  158.5994 O.3     1  UNL1       -0.3505
     25 C         142.9334  137.2851  157.1471 C.3     1  UNL1        0.0992
     26 C         142.6565  135.8616  156.7637 C.ar    1  UNL1       -0.0062
     27 C         143.3373  134.7422  157.4941 C.ar    1  UNL1       -0.0030
     28 C         143.0604  133.3187  157.1107 C.ar    1  UNL1        0.0036
     29 C         142.1027  133.0146  155.9970 C.ar    1  UNL1        0.0714
     30 C         141.4219  134.1340  155.2667 C.ar    1  UNL1        0.0036
     31 C         141.6988  135.5575  155.6501 C.ar    1  UNL1       -0.0030
     32 C         141.8258  131.5911  155.6136 C.3     1  UNL1        0.4186
     33 F         141.5489  130.1676  155.2302 F       1  UNL1       -0.1659
     34 F         140.9102  132.0629  154.5231 F       1  UNL1       -0.1659
     35 F         142.7413  131.1193  156.7041 F       1  UNL1       -0.1659
@<TRIPOS>BOND
     1    23    24    1
     2     1    24    1
     3     1     2    1
     4     2     3    1
     5     3    25    1
     6    25    26    1
     7    26    27   ar
     8    27    28   ar
     9    28    29   ar
    10    29    32    1
    11    32    33    1
    12    32    34    1
    13    32    35    1
    14    29    30   ar
    15    30    31   ar
    16     3     4    1
    17     4     5    1
    18     5     6    1
    19     6     7    1
    20     7     8    1
    21     7     9   am
    22     9    10    2
    23     9    11    1
    24    11    12    1
    25    12    13   ar
    26    13    14   ar
    27    14    15   ar
    28    15    18    1
    29    18    19   ar
    30    19    20   ar
    31    20    21   ar
    32    21    22   ar
    33    15    16   ar
    34    16    17   ar
    35     6     1    1
    36    17    12   ar
    37    31    26   ar
    38    22    18   ar
@<TRIPOS>MOLECULE
*****
 35 38 0 0 0
SMALL
GASTEIGER

@<TRIPOS>ATOM
      1 C         141.5531  139.8029  161.3108 C.3     1  UNL1        0.1493
      2 C         141.6227  140.1400  159.8508 C.3     1  UNL1        0.1040
      3 N         142.3406  139.2252  158.9034 N.3     1  UNL1       -0.2668
      4 C         142.9889  137.9733  159.4158 C.3     1  UNL1        0.0742
      5 C         142.9192  137.6363  160.8758 C.3     1  UNL1        0.0397
      6 C         142.2013  138.5511  161.8233 C.3     1  UNL1        0.1052
      7 N         142.1317  138.2140  163.2833 N.am    1  UNL1       -0.2767
      8 C         141.0684  137.2843  163.7884 C.3     1  UNL1        0.1149
      9 C         143.1252  138.8066  164.2380 C.2     1  UNL1        0.2301
     10 O         144.1884  139.7363  163.7329 O.2     1  UNL1       -0.2745
     11 C         143.0556  138.4695  165.6981 C.3     1  UNL1        0.1116
     12 C         142.3996  139.4188  166.6565 C.ar    1  UNL1       -0.0130
     13 C         142.5788  139.2354  168.1344 C.ar    1  UNL1       -0.0022
     14 C         141.9228  140.1847  169.0929 C.ar    1  UNL1        0.0190
     15 C         141.0877  141.3173  168.5735 C.ar    1  UNL1        0.0862
     16 C         140.9086  141.5006  167.0955 C.ar    1  UNL1        0.0190
     17 C         141.5645  140.5514  166.1370 C.ar    1  UNL1       -0.0022
     18 N         140.4318  142.2665  169.5319 N.ar    1  UNL1       -0.1886
     19 C         140.5506  143.7617  169.5122 C.ar    1  UNL1        0.2258
     20 N         139.7341  144.3065  170.6464 N.ar    1  UNL1       -0.1045
     21 N         139.1107  143.1480  171.3671 N.ar    1  UNL1       -0.0222
     22 N         139.5419  141.8873  170.6783 N.ar    1  UNL1       -0.0385
     23 C         139.3993  140.4595  162.6071 C.3     1  UNL1        0.1741
     24 O         140.8352  140.7177  162.2583 O.3     1  UNL1       -0.3505
     25 C         142.4103  139.5623  157.4433 C.3     1  UNL1        0.0992
     26 C         143.6829  140.0979  156.8572 C.ar    1  UNL1       -0.0062
     27 C         144.3021  141.3429  157.4199 C.ar    1  UNL1       -0.0030
     28 C         145.5747  141.8785  156.8337 C.ar    1  UNL1        0.0036
     29 C         146.2281  141.1691  155.6848 C.ar    1  UNL1        0.0714
     30 C         145.6089  139.9241  155.1222 C.ar    1  UNL1        0.0036
     31 C         144.3363  139.3885  155.7083 C.ar    1  UNL1       -0.0030
     32 C         147.5007  141.7047  155.0986 C.3     1  UNL1        0.4186
     33 F         148.7733  142.2403  154.5125 F       1  UNL1       -0.1659
     34 F         147.9565  142.1187  156.4664 F       1  UNL1       -0.1659
     35 F         147.0449  141.2907  153.7309 F       1  UNL1       -0.1659
@<TRIPOS>BOND
     1    23    24    1
     2     1    24    1
     3     1     2    1
     4     2     3    1
     5     3    25    1
     6    25    26    1
     7    26    27   ar
     8    27    28   ar
     9    28    29   ar
    10    29    32    1
    11    32    33    1
    12    32    34    1
    13    32    35    1
    14    29    30   ar
    15    30    31   ar
    16     3     4    1
    17     4     5    1
    18     5     6    1
    19     6     7    1
    20     7     8    1
    21     7     9   am
    22     9    10    2
    23     9    11    1
    24    11    12    1
    25    12    13   ar
    26    13    14   ar
    27    14    15   ar
    28    15    18    1
    29    18    19   ar
    30    19    20   ar
    31    20    21   ar
    32    21    22   ar
    33    15    16   ar
    34    16    17   ar
    35     6     1    1
    36    17    12   ar
    37    31    26   ar
    38    22    18   ar
@<TRIPOS>MOLECULE
*****
 35 38 0 0 0
SMALL
GASTEIGER

@<TRIPOS>ATOM
      1 C         143.6909  139.5508  160.3326 C.3     1  UNL1        0.1493
      2 C         143.8972  140.3110  159.0561 C.3     1  UNL1        0.1040
      3 N         144.1341  141.7917  159.0948 N.3     1  UNL1       -0.2668
      4 C         144.1647  142.5121  160.4101 C.3     1  UNL1        0.0742
      5 C         143.9585  141.7519  161.6866 C.3     1  UNL1        0.0397
      6 C         143.7216  140.2713  161.6478 C.3     1  UNL1        0.1052
      7 N         143.5154  139.5111  162.9244 N.am    1  UNL1       -0.2767
      8 C         144.6871  139.1916  163.8047 C.3     1  UNL1        0.1149
      9 C         142.1374  139.0704  163.3207 C.2     1  UNL1        0.2301
     10 O         140.9657  139.3899  162.4404 O.2     1  UNL1       -0.2745
     11 C         141.9312  138.3102  164.5973 C.3     1  UNL1        0.1116
     12 C         141.6753  139.0492  165.8773 C.ar    1  UNL1       -0.0130
     13 C         142.7795  139.2209  166.8778 C.ar    1  UNL1       -0.0022
     14 C         142.5236  139.9599  168.1578 C.ar    1  UNL1        0.0190
     15 C         141.1634  140.5272  168.4373 C.ar    1  UNL1        0.0862
     16 C         140.0591  140.3554  167.4367 C.ar    1  UNL1        0.0190
     17 C         140.3151  139.6165  166.1567 C.ar    1  UNL1       -0.0022
     18 N         140.9074  141.2662  169.7172 N.ar    1  UNL1       -0.1886
     19 C         141.8184  141.3085  170.9082 C.ar    1  UNL1        0.2258
     20 N         141.1696  142.1610  171.9580 N.ar    1  UNL1       -0.1045
     21 N         139.8576  142.6457  171.4158 N.ar    1  UNL1       -0.0222
     22 N         139.6956  142.0926  170.0310 N.ar    1  UNL1       -0.0385
     23 C         142.8108  137.4447  159.0918 C.3     1  UNL1        0.1741
     24 O         143.4540  138.0701  160.2938 O.3     1  UNL1       -0.3505
     25 C         144.3403  142.5519  157.8182 C.3     1  UNL1        0.0992
     26 C         145.5835  142.3335  157.0078 C.ar    1  UNL1       -0.0062
     27 C         145.5062  141.6106  155.6957 C.ar    1  UNL1       -0.0030
     28 C         146.7494  141.3923  154.8853 C.ar    1  UNL1        0.0036
     29 C         148.0699  141.8968  155.3870 C.ar    1  UNL1        0.0714
     30 C         148.1472  142.6197  156.6990 C.ar    1  UNL1        0.0036
     31 C         146.9040  142.8380  157.5094 C.ar    1  UNL1       -0.0030
     32 C         149.3131  141.6785  154.5765 C.3     1  UNL1        0.4186
     33 F         150.5563  141.4602  153.7661 F       1  UNL1       -0.1659
     34 F         148.4750  141.4309  153.3575 F       1  UNL1       -0.1659
     35 F         150.1513  141.9261  155.7956 F       1  UNL1       -0.1659
@<TRIPOS>BOND
     1    23    24    1
     2     1    24    1
     3     1     2    1
     4     2     3    1
     5     3    25    1
     6    25    26    1
     7    26    27   ar
     8    27    28   ar
     9    28    29   ar
    10    29    32    1
    11    32    33    1
    12    32    34    1
    13    32    35    1
    14    29    30   ar
    15    30    31   ar
    16     3     4    1
    17     4     5    1
    18     5     6    1
    19     6     7    1
    20     7     8    1
    21     7     9   am
    22     9    10    2
    23     9    11    1
    24    11    12    1
    25    12    13   ar
    26    13    14   ar
    27    14    15   ar
    28    15    18    1
    29    18    19   ar
    30    19    20   ar
    31    20    21   ar
    32    21    22   ar
    33    15    16   ar
    34    16    17   ar
    35     6     1    1
    36    17    12   ar
    37    31    26   ar
    38    22    18   ar
@<TRIPOS>MOLECULE
*****
 35 38 0 0 0
SMALL
GASTEIGER

@<TRIPOS>ATOM
      1 C         142.7805  141.6735  161.3204 C.3     1  UNL1        0.1493
      2 C         142.9858  142.4229  160.0373 C.3     1  UNL1        0.1040
      3 N         143.4540  141.6967  158.8112 N.3     1  UNL1       -0.2668
      4 C         143.7169  140.2210  158.8681 C.3     1  UNL1        0.0742
      5 C         143.5116  139.4716  160.1511 C.3     1  UNL1        0.0397
      6 C         143.0435  140.1978  161.3773 C.3     1  UNL1        0.1052
      7 N         142.8382  139.4483  162.6603 N.am    1  UNL1       -0.2767
      8 C         141.6057  138.6155  162.8535 C.3     1  UNL1        0.1149
      9 C         143.8655  139.5317  163.7502 C.2     1  UNL1        0.2301
     10 O         145.0979  140.3646  163.5570 O.2     1  UNL1       -0.2745
     11 C         143.6602  138.7822  165.0333 C.3     1  UNL1        0.1116
     12 C         143.0246  139.4655  166.2075 C.ar    1  UNL1       -0.0130
     13 C         142.3782  140.8080  166.0345 C.ar    1  UNL1       -0.0022
     14 C         141.7425  141.4914  167.2088 C.ar    1  UNL1        0.0190
     15 C         141.7532  140.8322  168.5562 C.ar    1  UNL1        0.0862
     16 C         142.3996  139.4897  168.7292 C.ar    1  UNL1        0.0190
     17 C         143.0353  138.8064  167.5549 C.ar    1  UNL1       -0.0022
     18 N         141.1176  141.5155  169.7304 N.ar    1  UNL1       -0.1886
     19 C         141.3752  141.2071  171.1756 C.ar    1  UNL1        0.2258
     20 N         140.5296  142.1282  172.0041 N.ar    1  UNL1       -0.1045
     21 N         139.7492  143.0059  171.0709 N.ar    1  UNL1       -0.0222
     22 N         140.1126  142.6272  169.6658 N.ar    1  UNL1       -0.0385
     23 C         140.8473  142.4773  162.8587 C.3     1  UNL1        0.1741
     24 O         142.3124  142.3997  162.5465 O.3     1  UNL1       -0.3505
     25 C         143.6592  142.4462  157.5281 C.3     1  UNL1        0.0992
     26 C         144.9498  142.3069  156.7764 C.ar    1  UNL1       -0.0062
     27 C         144.9438  141.8066  155.3623 C.ar    1  UNL1       -0.0030
     28 C         146.2344  141.6674  154.6106 C.ar    1  UNL1        0.0036
     29 C         147.5309  142.0285  155.2731 C.ar    1  UNL1        0.0714
     30 C         147.5368  142.5287  156.6871 C.ar    1  UNL1        0.0036
     31 C         146.2462  142.6680  157.4388 C.ar    1  UNL1       -0.0030
     32 C         148.8215  141.8892  154.5214 C.3     1  UNL1        0.4186
     33 F         150.1121  141.7500  153.7697 F       1  UNL1       -0.1659
     34 F         149.4007  141.1048  155.6612 F       1  UNL1       -0.1659
     35 F         148.2422  142.6737  153.3816 F       1  UNL1       -0.1659
@<TRIPOS>BOND
     1    23    24    1
     2     1    24    1
     3     1     2    1
     4     2     3    1
     5     3    25    1
     6    25    26    1
     7    26    27   ar
     8    27    28   ar
     9    28    29   ar
    10    29    32    1
    11    32    33    1
    12    32    34    1
    13    32    35    1
    14    29    30   ar
    15    30    31   ar
    16     3     4    1
    17     4     5    1
    18     5     6    1
    19     6     7    1
    20     7     8    1
    21     7     9   am
    22     9    10    2
    23     9    11    1
    24    11    12    1
    25    12    13   ar
    26    13    14   ar
    27    14    15   ar
    28    15    18    1
    29    18    19   ar
    30    19    20   ar
    31    20    21   ar
    32    21    22   ar
    33    15    16   ar
    34    16    17   ar
    35     6     1    1
    36    17    12   ar
    37    31    26   ar
    38    22    18   ar
@<TRIPOS>MOLECULE
*****
 35 38 0 0 0
SMALL
GASTEIGER

@<TRIPOS>ATOM
      1 C         141.4471  139.1009  160.2476 C.3     1  UNL1        0.1493
      2 C         141.1252  138.3841  158.9699 C.3     1  UNL1        0.1040
      3 N         142.0458  138.5018  157.7915 N.3     1  UNL1       -0.2668
      4 C         143.2882  139.3362  157.8907 C.3     1  UNL1        0.0742
      5 C         143.6102  140.0530  159.1684 C.3     1  UNL1        0.0397
      6 C         142.6896  139.9353  160.3469 C.3     1  UNL1        0.1052
      7 N         143.0116  140.6522  161.6246 N.am    1  UNL1       -0.2767
      8 C         142.6338  142.0942  161.7912 C.3     1  UNL1        0.1149
      9 C         143.7112  139.9269  162.7357 C.2     1  UNL1        0.2301
     10 O         144.0890  138.4849  162.5690 O.2     1  UNL1       -0.2745
     11 C         144.0332  140.6438  164.0134 C.3     1  UNL1        0.1116
     12 C         143.1439  140.4796  165.2101 C.ar    1  UNL1       -0.0130
     13 C         143.4080  139.3799  166.1955 C.ar    1  UNL1       -0.0022
     14 C         142.5186  139.2157  167.3922 C.ar    1  UNL1        0.0190
     15 C         141.3653  140.1511  167.6036 C.ar    1  UNL1        0.0862
     16 C         141.1012  141.2508  166.6181 C.ar    1  UNL1        0.0190
     17 C         141.9905  141.4150  165.4214 C.ar    1  UNL1       -0.0022
     18 N         140.4759  139.9869  168.8003 N.ar    1  UNL1       -0.1886
     19 C         140.9273  139.8890  170.2274 C.ar    1  UNL1        0.2258
     20 N         139.7094  139.7334  171.0891 N.ar    1  UNL1       -0.1045
     21 N         138.5054  139.7352  170.1945 N.ar    1  UNL1       -0.0222
     22 N         138.9791  139.8919  168.7799 N.ar    1  UNL1       -0.0385
     23 C         140.6267  137.7985  162.3406 C.3     1  UNL1        0.1741
     24 O         140.5266  138.9832  161.4261 O.3     1  UNL1       -0.3505
     25 C         141.7238  137.7849  156.5137 C.3     1  UNL1        0.0992
     26 C         142.2955  136.4228  156.2534 C.ar    1  UNL1       -0.0062
     27 C         142.0604  135.7506  154.9332 C.ar    1  UNL1       -0.0030
     28 C         142.6322  134.3885  154.6728 C.ar    1  UNL1        0.0036
     29 C         143.4390  133.6986  155.7327 C.ar    1  UNL1        0.0714
     30 C         143.6741  134.3709  157.0528 C.ar    1  UNL1        0.0036
     31 C         143.1023  135.7330  157.3132 C.ar    1  UNL1       -0.0030
     32 C         144.0107  132.3365  155.4723 C.3     1  UNL1        0.4186
     33 F         144.5825  130.9744  155.2120 F       1  UNL1       -0.1659
     34 F         144.6393  132.3400  156.8343 F       1  UNL1       -0.1659
     35 F         143.3822  132.3330  154.1104 F       1  UNL1       -0.1659
@<TRIPOS>BOND
     1    23    24    1
     2     1    24    1
     3     1     2    1
     4     2     3    1
     5     3    25    1
     6    25    26    1
     7    26    27   ar
     8    27    28   ar
     9    28    29   ar
    10    29    32    1
    11    32    33    1
    12    32    34    1
    13    32    35    1
    14    29    30   ar
    15    30    31   ar
    16     3     4    1
    17     4     5    1
    18     5     6    1
    19     6     7    1
    20     7     8    1
    21     7     9   am
    22     9    10    2
    23     9    11    1
    24    11    12    1
    25    12    13   ar
    26    13    14   ar
    27    14    15   ar
    28    15    18    1
    29    18    19   ar
    30    19    20   ar
    31    20    21   ar
    32    21    22   ar
    33    15    16   ar
    34    16    17   ar
    35     6     1    1
    36    17    12   ar
    37    31    26   ar
    38    22    18   ar
@<TRIPOS>MOLECULE
*****
 35 38 0 0 0
SMALL
GASTEIGER

@<TRIPOS>ATOM
      1 C         141.7707  139.3840  160.6638 C.3     1  UNL1        0.1493
      2 C         141.2639  138.7487  159.4031 C.3     1  UNL1        0.1040
      3 N         141.9296  139.0475  158.0925 N.3     1  UNL1       -0.2668
      4 C         143.1021  139.9817  158.0427 C.3     1  UNL1        0.0742
      5 C         143.6089  140.6170  159.3034 C.3     1  UNL1        0.0397
      6 C         142.9432  140.3182  160.6139 C.3     1  UNL1        0.1052
      7 N         143.4501  140.9536  161.8747 N.am    1  UNL1       -0.2767
      8 C         144.4617  140.2387  162.7206 C.3     1  UNL1        0.1149
      9 C         142.9454  142.3038  162.2895 C.2     1  UNL1        0.2301
     10 O         141.9337  143.0187  161.4436 O.2     1  UNL1       -0.2745
     11 C         143.4522  142.9392  163.5503 C.3     1  UNL1        0.1116
     12 C         142.6994  142.7606  164.8353 C.ar    1  UNL1       -0.0130
     13 C         143.3967  142.2067  166.0423 C.ar    1  UNL1       -0.0022
     14 C         142.6439  142.0281  167.3274 C.ar    1  UNL1        0.0190
     15 C         141.1937  142.4035  167.4054 C.ar    1  UNL1        0.0862
     16 C         140.4964  142.9574  166.1983 C.ar    1  UNL1        0.0190
     17 C         141.2492  143.1360  164.9133 C.ar    1  UNL1       -0.0022
     18 N         140.4409  142.2249  168.6904 N.ar    1  UNL1       -0.1886
     19 C         140.2959  143.2489  169.7769 C.ar    1  UNL1        0.2258
     20 N         139.4662  142.6479  170.8726 N.ar    1  UNL1       -0.1045
     21 N         139.0984  141.2524  170.4631 N.ar    1  UNL1       -0.0222
     22 N         139.7008  140.9911  169.1145 N.ar    1  UNL1       -0.0385
     23 C         141.1936  137.7089  162.5640 C.3     1  UNL1        0.1741
     24 O         141.1050  139.0852  161.9743 O.3     1  UNL1       -0.3505
     25 C         141.4227  138.4121  156.8317 C.3     1  UNL1        0.0992
     26 C         141.7482  136.9792  156.5307 C.ar    1  UNL1       -0.0062
     27 C         142.8969  136.3092  157.2249 C.ar    1  UNL1       -0.0030
     28 C         143.2224  134.8762  156.9239 C.ar    1  UNL1        0.0036
     29 C         142.3993  134.1132  155.9287 C.ar    1  UNL1        0.0714
     30 C         141.2507  134.7832  155.2346 C.ar    1  UNL1        0.0036
     31 C         140.9251  136.2161  155.5356 C.ar    1  UNL1       -0.0030
     32 C         142.7248  132.6802  155.6277 C.3     1  UNL1        0.4186
     33 F         143.0503  131.2473  155.3266 F       1  UNL1       -0.1659
     34 F         144.1870  133.0146  155.6172 F       1  UNL1       -0.1659
     35 F         141.2626  132.3459  155.6381 F       1  UNL1       -0.1659
@<TRIPOS>BOND
     1    23    24    1
     2     1    24    1
     3     1     2    1
     4     2     3    1
     5     3    25    1
     6    25    26    1
     7    26    27   ar
     8    27    28   ar
     9    28    29   ar
    10    29    32    1
    11    32    33    1
    12    32    34    1
    13    32    35    1
    14    29    30   ar
    15    30    31   ar
    16     3     4    1
    17     4     5    1
    18     5     6    1
    19     6     7    1
    20     7     8    1
    21     7     9   am
    22     9    10    2
    23     9    11    1
    24    11    12    1
    25    12    13   ar
    26    13    14   ar
    27    14    15   ar
    28    15    18    1
    29    18    19   ar
    30    19    20   ar
    31    20    21   ar
    32    21    22   ar
    33    15    16   ar
    34    16    17   ar
    35     6     1    1
    36    17    12   ar
    37    31    26   ar
    38    22    18   ar
