@<TRIPOS>MOLECULE
*****
 26 29 0 0 0
SMALL
GASTEIGER

@<TRIPOS>ATOM
      1 C         143.6663  139.6754  164.8922 C.ar    1  UNL1       -0.0059
      2 C         143.9984  139.0790  163.5566 C.ar    1  UNL1        0.0002
      3 C         144.4340  139.9648  162.4271 C.ar    1  UNL1        0.0373
      4 C         144.5374  141.4470  162.6333 C.ar    1  UNL1        0.1477
      5 C         144.2053  142.0433  163.9690 C.ar    1  UNL1        0.0373
      6 C         143.7697  141.1576  165.0984 C.ar    1  UNL1        0.0002
      7 C         143.2307  138.7897  166.0218 C.3     1  UNL1        0.0991
      8 C         140.1767  140.2573  168.9830 C.3     1  UNL1        0.0393
      9 C         141.5845  139.9910  169.4271 C.3     1  UNL1        0.0229
     10 C         142.6025  139.5018  168.4401 C.3     1  UNL1        0.0728
     11 N         142.2127  139.2788  167.0088 N.3     1  UNL1       -0.2689
     12 C         140.8050  139.5451  166.5647 C.3     1  UNL1        0.0728
     13 C         139.7869  140.0343  167.5518 C.3     1  UNL1        0.0229
     14 O         137.9958  139.8752  170.3423 O.co2   1  UNL1       -0.5492
     15 C         139.1587  140.7465  169.9701 C.2     1  UNL1        0.0501
     16 O         139.3036  142.1069  170.5850 O.co2   1  UNL1       -0.5492
     17 O         144.9730  142.3327  161.5038 O.3     1  UNL1       -0.4313
     18 C         143.9506  142.9377  160.5880 C.ar    1  UNL1        0.2628
     19 N         142.9333  143.9739  160.9639 N.ar    1  UNL1       -0.2050
     20 C         142.1201  144.2893  159.7436 C.ar    1  UNL1        0.0910
     21 C         140.9774  145.2338  159.5155 C.ar    1  UNL1        0.0197
     22 C         140.3494  145.3370  158.1573 C.ar    1  UNL1        0.0016
     23 C         140.8641  144.4957  157.0271 C.ar    1  UNL1        0.0006
     24 C         142.0068  143.5512  157.2552 C.ar    1  UNL1        0.0081
     25 C         142.6348  143.4480  158.6134 C.ar    1  UNL1        0.0515
     26 S         143.7661  142.6127  159.1353 S.2     1  UNL1       -0.0283
@<TRIPOS>UNITY_ATOM_ATTR
14 1
charge -1
@<TRIPOS>BOND
     1    14    15   ar
     2    15    16   ar
     3    15     8    1
     4     8     9    1
     5     9    10    1
     6    10    11    1
     7    11     7    1
     8     7     1    1
     9     1     2   ar
    10     2     3   ar
    11     3     4   ar
    12     4    17    1
    13    17    18    1
    14    18    19   ar
    15    19    20   ar
    16    20    21   ar
    17    21    22   ar
    18    22    23   ar
    19    23    24   ar
    20    24    25   ar
    21    25    26   ar
    22     4     5   ar
    23     5     6   ar
    24    11    12    1
    25    12    13    1
    26    13     8    1
    27     6     1   ar
    28    26    18   ar
    29    25    20   ar
@<TRIPOS>MOLECULE
*****
 26 29 0 0 0
SMALL
GASTEIGER

@<TRIPOS>ATOM
      1 C         139.0910  139.5412  164.7718 C.ar    1  UNL1       -0.0059
      2 C         138.0646  140.6309  164.6768 C.ar    1  UNL1        0.0002
      3 C         137.6102  141.1181  163.3328 C.ar    1  UNL1        0.0373
      4 C         138.1823  140.5156  162.0839 C.ar    1  UNL1        0.1477
      5 C         139.2087  139.4258  162.1790 C.ar    1  UNL1        0.0373
      6 C         139.6630  138.9387  163.5229 C.ar    1  UNL1        0.0002
      7 C         139.5453  139.0540  166.1158 C.3     1  UNL1        0.0991
      8 C         139.9879  141.9535  169.5286 C.3     1  UNL1        0.0393
      9 C         139.1554  140.7172  169.6979 C.3     1  UNL1        0.0229
     10 C         139.0079  139.7507  168.5603 C.3     1  UNL1        0.0728
     11 N         139.6928  140.0205  167.2534 N.3     1  UNL1       -0.2689
     12 C         140.5252  141.2567  167.0840 C.3     1  UNL1        0.0728
     13 C         140.6728  142.2233  168.2216 C.3     1  UNL1        0.0229
     14 O         139.9852  144.3925  170.4234 O.co2   1  UNL1       -0.5492
     15 C         140.1354  142.9200  170.6662 C.2     1  UNL1        0.0501
     16 O         140.4330  142.4139  172.0465 O.co2   1  UNL1       -0.5492
     17 O         137.7280  141.0028  160.7400 O.3     1  UNL1       -0.4313
     18 C         138.5181  142.0525  160.0163 C.ar    1  UNL1        0.2628
     19 N         138.4328  142.3673  158.5522 N.ar    1  UNL1       -0.2050
     20 C         139.3942  143.4811  158.2606 C.ar    1  UNL1        0.0910
     21 C         139.7387  144.2033  156.9919 C.ar    1  UNL1        0.0197
     22 C         140.7628  145.2992  157.0072 C.ar    1  UNL1        0.0016
     23 C         141.4423  145.6729  158.2912 C.ar    1  UNL1        0.0006
     24 C         141.0978  144.9506  159.5599 C.ar    1  UNL1        0.0081
     25 C         140.0738  143.8547  159.5446 C.ar    1  UNL1        0.0515
     26 S         139.5323  142.9718  160.6296 S.2     1  UNL1       -0.0283
@<TRIPOS>UNITY_ATOM_ATTR
14 1
charge -1
@<TRIPOS>BOND
     1    14    15   ar
     2    15    16   ar
     3    15     8    1
     4     8     9    1
     5     9    10    1
     6    10    11    1
     7    11     7    1
     8     7     1    1
     9     1     2   ar
    10     2     3   ar
    11     3     4   ar
    12     4    17    1
    13    17    18    1
    14    18    19   ar
    15    19    20   ar
    16    20    21   ar
    17    21    22   ar
    18    22    23   ar
    19    23    24   ar
    20    24    25   ar
    21    25    26   ar
    22     4     5   ar
    23     5     6   ar
    24    11    12    1
    25    12    13    1
    26    13     8    1
    27     6     1   ar
    28    26    18   ar
    29    25    20   ar
@<TRIPOS>MOLECULE
*****
 26 29 0 0 0
SMALL
GASTEIGER

@<TRIPOS>ATOM
      1 C         139.5843  138.6762  165.3735 C.ar    1  UNL1       -0.0059
      2 C         138.8373  138.3773  164.1075 C.ar    1  UNL1        0.0002
      3 C         139.5811  137.9183  162.8884 C.ar    1  UNL1        0.0373
      4 C         141.0718  137.7582  162.9353 C.ar    1  UNL1        0.1477
      5 C         141.8187  138.0571  164.2014 C.ar    1  UNL1        0.0373
      6 C         141.0749  138.5161  165.4204 C.ar    1  UNL1        0.0002
      7 C         138.8405  139.1352  166.5926 C.3     1  UNL1        0.0991
      8 C         140.4527  142.5313  169.0660 C.3     1  UNL1        0.0393
      9 C         139.8662  141.3258  169.7389 C.3     1  UNL1        0.0229
     10 C         139.3288  140.1938  168.9145 C.3     1  UNL1        0.0728
     11 N         139.3779  140.2672  167.4171 N.3     1  UNL1       -0.2689
     12 C         139.9644  141.4727  166.7441 C.3     1  UNL1        0.0728
     13 C         140.5018  142.6048  167.5686 C.3     1  UNL1        0.0229
     14 O         142.4094  143.6306  170.3747 O.co2   1  UNL1       -0.5492
     15 C         140.9901  143.6633  169.8904 C.2     1  UNL1        0.0501
     16 O         140.1082  144.8280  170.2306 O.co2   1  UNL1       -0.5492
     17 O         141.8155  137.2992  161.7163 O.3     1  UNL1       -0.4313
     18 C         142.0730  138.2561  160.5902 C.ar    1  UNL1        0.2628
     19 N         143.3909  138.8891  160.2549 N.ar    1  UNL1       -0.2050
     20 C         143.1901  139.7723  159.0592 C.ar    1  UNL1        0.0910
     21 C         144.1341  140.6445  158.2859 C.ar    1  UNL1        0.0197
     22 C         143.6360  141.4296  157.1088 C.ar    1  UNL1        0.0016
     23 C         142.1940  141.3424  156.7051 C.ar    1  UNL1        0.0006
     24 C         141.2501  140.4701  157.4784 C.ar    1  UNL1        0.0081
     25 C         141.7481  139.6851  158.6554 C.ar    1  UNL1        0.0515
     26 S         141.0577  138.7480  159.6017 S.2     1  UNL1       -0.0283
@<TRIPOS>UNITY_ATOM_ATTR
14 1
charge -1
@<TRIPOS>BOND
     1    14    15   ar
     2    15    16   ar
     3    15     8    1
     4     8     9    1
     5     9    10    1
     6    10    11    1
     7    11     7    1
     8     7     1    1
     9     1     2   ar
    10     2     3   ar
    11     3     4   ar
    12     4    17    1
    13    17    18    1
    14    18    19   ar
    15    19    20   ar
    16    20    21   ar
    17    21    22   ar
    18    22    23   ar
    19    23    24   ar
    20    24    25   ar
    21    25    26   ar
    22     4     5   ar
    23     5     6   ar
    24    11    12    1
    25    12    13    1
    26    13     8    1
    27     6     1   ar
    28    26    18   ar
    29    25    20   ar
@<TRIPOS>MOLECULE
*****
 26 29 0 0 0
SMALL
GASTEIGER

@<TRIPOS>ATOM
      1 C         138.7302  139.3480  165.1909 C.ar    1  UNL1       -0.0059
      2 C         139.1891  138.3651  164.1549 C.ar    1  UNL1        0.0002
      3 C         138.8641  138.5934  162.7084 C.ar    1  UNL1        0.0373
      4 C         138.0802  139.8046  162.2979 C.ar    1  UNL1        0.1477
      5 C         137.6212  140.7874  163.3340 C.ar    1  UNL1        0.0373
      6 C         137.9462  140.5591  164.7804 C.ar    1  UNL1        0.0002
      7 C         139.0551  139.1197  166.6374 C.3     1  UNL1        0.0991
      8 C         140.4802  142.5404  169.1904 C.3     1  UNL1        0.0393
      9 C         140.7596  142.5373  167.7166 C.3     1  UNL1        0.0229
     10 C         140.2846  141.3970  166.8656 C.3     1  UNL1        0.0728
     11 N         139.5302  140.2599  167.4884 N.3     1  UNL1       -0.2689
     12 C         139.2507  140.2631  168.9621 C.3     1  UNL1        0.0728
     13 C         139.7257  141.4033  169.8131 C.3     1  UNL1        0.0229
     14 O         140.0603  144.8600  170.2826 O.co2   1  UNL1       -0.5492
     15 C         140.9552  143.6807  170.0414 C.2     1  UNL1        0.0501
     16 O         142.3251  143.6416  170.6511 O.co2   1  UNL1       -0.5492
     17 O         137.7552  140.0329  160.8515 O.3     1  UNL1       -0.4313
     18 C         138.3396  141.2098  160.1282 C.ar    1  UNL1        0.2628
     19 N         139.0673  142.3599  160.7590 N.ar    1  UNL1       -0.2050
     20 C         139.4764  143.3042  159.6677 C.ar    1  UNL1        0.0910
     21 C         140.2200  144.6067  159.6939 C.ar    1  UNL1        0.0197
     22 C         140.4887  145.3427  158.4149 C.ar    1  UNL1        0.0016
     23 C         140.0139  144.7763  157.1096 C.ar    1  UNL1        0.0006
     24 C         139.2703  143.4738  157.0834 C.ar    1  UNL1        0.0081
     25 C         139.0016  142.7378  158.3624 C.ar    1  UNL1        0.0515
     26 S         138.2991  141.4434  158.6470 S.2     1  UNL1       -0.0283
@<TRIPOS>UNITY_ATOM_ATTR
14 1
charge -1
@<TRIPOS>BOND
     1    14    15   ar
     2    15    16   ar
     3    15     8    1
     4     8     9    1
     5     9    10    1
     6    10    11    1
     7    11     7    1
     8     7     1    1
     9     1     2   ar
    10     2     3   ar
    11     3     4   ar
    12     4    17    1
    13    17    18    1
    14    18    19   ar
    15    19    20   ar
    16    20    21   ar
    17    21    22   ar
    18    22    23   ar
    19    23    24   ar
    20    24    25   ar
    21    25    26   ar
    22     4     5   ar
    23     5     6   ar
    24    11    12    1
    25    12    13    1
    26    13     8    1
    27     6     1   ar
    28    26    18   ar
    29    25    20   ar
@<TRIPOS>MOLECULE
*****
 26 29 0 0 0
SMALL
GASTEIGER

@<TRIPOS>ATOM
      1 C         138.6104  138.9672  165.4910 C.ar    1  UNL1       -0.0059
      2 C         139.1883  137.6921  164.9525 C.ar    1  UNL1        0.0002
      3 C         139.2534  137.4649  163.4711 C.ar    1  UNL1        0.0373
      4 C         138.7407  138.5130  162.5285 C.ar    1  UNL1        0.1477
      5 C         138.1628  139.7882  163.0671 C.ar    1  UNL1        0.0373
      6 C         138.0977  140.0152  164.5483 C.ar    1  UNL1        0.0002
      7 C         138.5453  139.1943  166.9724 C.3     1  UNL1        0.0991
      8 C         141.6607  141.7316  168.9987 C.3     1  UNL1        0.0393
      9 C         140.4688  141.2484  169.7707 C.3     1  UNL1        0.0229
     10 C         139.4304  140.4026  169.0952 C.3     1  UNL1        0.0728
     11 N         139.5838  140.0401  167.6478 N.3     1  UNL1       -0.2689
     12 C         140.7756  140.5233  166.8758 C.3     1  UNL1        0.0728
     13 C         141.8141  141.3691  167.5513 C.3     1  UNL1        0.0229
     14 O         142.3991  143.2206  170.9955 O.co2   1  UNL1       -0.5492
     15 C         142.6992  142.5774  169.6742 C.2     1  UNL1        0.0501
     16 O         144.0378  142.7799  169.0282 O.co2   1  UNL1       -0.5492
     17 O         138.8058  138.2859  161.0472 O.3     1  UNL1       -0.4313
     18 C         138.9170  139.4546  160.1134 C.ar    1  UNL1        0.2628
     19 N         137.8297  139.9779  159.2225 N.ar    1  UNL1       -0.2050
     20 C         138.3758  141.1518  158.4651 C.ar    1  UNL1        0.0910
     21 C         137.7597  142.0628  157.4450 C.ar    1  UNL1        0.0197
     22 C         138.5684  143.1759  156.8478 C.ar    1  UNL1        0.0016
     23 C         139.9933  143.3782  157.2707 C.ar    1  UNL1        0.0006
     24 C         140.6094  142.4672  158.2908 C.ar    1  UNL1        0.0081
     25 C         139.8006  141.3541  158.8880 C.ar    1  UNL1        0.0515
     26 S         140.1351  140.3051  159.9067 S.2     1  UNL1       -0.0283
@<TRIPOS>UNITY_ATOM_ATTR
14 1
charge -1
@<TRIPOS>BOND
     1    14    15   ar
     2    15    16   ar
     3    15     8    1
     4     8     9    1
     5     9    10    1
     6    10    11    1
     7    11     7    1
     8     7     1    1
     9     1     2   ar
    10     2     3   ar
    11     3     4   ar
    12     4    17    1
    13    17    18    1
    14    18    19   ar
    15    19    20   ar
    16    20    21   ar
    17    21    22   ar
    18    22    23   ar
    19    23    24   ar
    20    24    25   ar
    21    25    26   ar
    22     4     5   ar
    23     5     6   ar
    24    11    12    1
    25    12    13    1
    26    13     8    1
    27     6     1   ar
    28    26    18   ar
    29    25    20   ar
@<TRIPOS>MOLECULE
*****
 26 29 0 0 0
SMALL
GASTEIGER

@<TRIPOS>ATOM
      1 C         143.4370  139.1321  164.9109 C.ar    1  UNL1       -0.0059
      2 C         144.2208  140.3430  164.4994 C.ar    1  UNL1        0.0002
      3 C         144.2345  140.7751  163.0630 C.ar    1  UNL1        0.0373
      4 C         143.4644  139.9962  162.0382 C.ar    1  UNL1        0.1477
      5 C         142.6805  138.7853  162.4498 C.ar    1  UNL1        0.0373
      6 C         142.6669  138.3533  163.8861 C.ar    1  UNL1        0.0002
      7 C         143.4233  138.7000  166.3473 C.3     1  UNL1        0.0991
      8 C         140.2260  140.2217  169.1243 C.3     1  UNL1        0.0393
      9 C         139.9835  140.1952  167.6443 C.3     1  UNL1        0.0229
     10 C         141.0493  139.6879  166.7186 C.3     1  UNL1        0.0728
     11 N         142.3576  139.2073  167.2730 N.3     1  UNL1       -0.2689
     12 C         142.6001  139.2338  168.7530 C.3     1  UNL1        0.0728
     13 C         141.5343  139.7410  169.6787 C.3     1  UNL1        0.0229
     14 O         139.2983  142.0817  170.6829 O.co2   1  UNL1       -0.5492
     15 C         139.1603  140.7289  170.0500 C.2     1  UNL1        0.0501
     16 O         137.9564  139.8833  170.3427 O.co2   1  UNL1       -0.5492
     17 O         143.4780  140.4282  160.6018 O.3     1  UNL1       -0.4313
     18 C         142.7693  139.6079  159.5651 C.ar    1  UNL1        0.2628
     19 N         143.3500  138.4501  158.8086 N.ar    1  UNL1       -0.2050
     20 C         142.2951  137.9280  157.8788 C.ar    1  UNL1        0.0910
     21 C         142.2977  136.8000  156.8901 C.ar    1  UNL1        0.0197
     22 C         141.0676  136.5072  156.0832 C.ar    1  UNL1        0.0016
     23 C         139.8349  137.3423  156.2651 C.ar    1  UNL1        0.0006
     24 C         139.8323  138.4702  157.2538 C.ar    1  UNL1        0.0081
     25 C         141.0624  138.7631  158.0607 C.ar    1  UNL1        0.0515
     26 S         141.3555  139.8013  159.1029 S.2     1  UNL1       -0.0283
@<TRIPOS>UNITY_ATOM_ATTR
14 1
charge -1
@<TRIPOS>BOND
     1    14    15   ar
     2    15    16   ar
     3    15     8    1
     4     8     9    1
     5     9    10    1
     6    10    11    1
     7    11     7    1
     8     7     1    1
     9     1     2   ar
    10     2     3   ar
    11     3     4   ar
    12     4    17    1
    13    17    18    1
    14    18    19   ar
    15    19    20   ar
    16    20    21   ar
    17    21    22   ar
    18    22    23   ar
    19    23    24   ar
    20    24    25   ar
    21    25    26   ar
    22     4     5   ar
    23     5     6   ar
    24    11    12    1
    25    12    13    1
    26    13     8    1
    27     6     1   ar
    28    26    18   ar
    29    25    20   ar
@<TRIPOS>MOLECULE
*****
 26 29 0 0 0
SMALL
GASTEIGER

@<TRIPOS>ATOM
      1 C         143.0720  138.4737  165.4613 C.ar    1  UNL1       -0.0059
      2 C         143.9792  139.0611  164.4212 C.ar    1  UNL1        0.0002
      3 C         143.6302  138.9408  162.9673 C.ar    1  UNL1        0.0373
      4 C         142.3741  138.2331  162.5535 C.ar    1  UNL1        0.1477
      5 C         141.4669  137.6456  163.5937 C.ar    1  UNL1        0.0373
      6 C         141.8158  137.7660  165.0476 C.ar    1  UNL1        0.0002
      7 C         143.4209  138.5940  166.9152 C.3     1  UNL1        0.0991
      8 C         141.2846  141.5938  169.5012 C.3     1  UNL1        0.0393
      9 C         141.6067  141.9278  168.0747 C.3     1  UNL1        0.0229
     10 C         142.3188  140.9278  167.2127 C.3     1  UNL1        0.0728
     11 N         142.7088  139.5939  167.7772 N.3     1  UNL1       -0.2689
     12 C         142.3867  139.2600  169.2036 C.3     1  UNL1        0.0728
     13 C         141.6746  140.2599  170.0656 C.3     1  UNL1        0.0229
     14 O         140.0372  143.8581  169.7592 O.co2   1  UNL1       -0.5492
     15 C         140.5724  142.5937  170.3631 C.2     1  UNL1        0.0501
     16 O         140.3956  142.3293  171.8290 O.co2   1  UNL1       -0.5492
     17 O         142.0251  138.1127  161.0997 O.3     1  UNL1       -0.4313
     18 C         142.4704  139.1685  160.1316 C.ar    1  UNL1        0.2628
     19 N         143.6876  139.1061  159.2573 N.ar    1  UNL1       -0.2050
     20 C         143.7462  140.3710  158.4532 C.ar    1  UNL1        0.0910
     21 C         144.7223  140.8632  157.4262 C.ar    1  UNL1        0.0197
     22 C         144.5174  142.1996  156.7765 C.ar    1  UNL1        0.0016
     23 C         143.3363  143.0437  157.1539 C.ar    1  UNL1        0.0006
     24 C         142.3601  142.5516  158.1809 C.ar    1  UNL1        0.0081
     25 C         142.5651  141.2152  158.8306 C.ar    1  UNL1        0.0515
     26 S         141.7766  140.4720  159.8679 S.2     1  UNL1       -0.0283
@<TRIPOS>UNITY_ATOM_ATTR
14 1
charge -1
@<TRIPOS>BOND
     1    14    15   ar
     2    15    16   ar
     3    15     8    1
     4     8     9    1
     5     9    10    1
     6    10    11    1
     7    11     7    1
     8     7     1    1
     9     1     2   ar
    10     2     3   ar
    11     3     4   ar
    12     4    17    1
    13    17    18    1
    14    18    19   ar
    15    19    20   ar
    16    20    21   ar
    17    21    22   ar
    18    22    23   ar
    19    23    24   ar
    20    24    25   ar
    21    25    26   ar
    22     4     5   ar
    23     5     6   ar
    24    11    12    1
    25    12    13    1
    26    13     8    1
    27     6     1   ar
    28    26    18   ar
    29    25    20   ar
@<TRIPOS>MOLECULE
*****
 26 29 0 0 0
SMALL
GASTEIGER

@<TRIPOS>ATOM
      1 C         138.5590  139.0042  165.7242 C.ar    1  UNL1       -0.0059
      2 C         138.9446  137.6999  165.0918 C.ar    1  UNL1        0.0002
      3 C         138.9063  137.5494  163.5999 C.ar    1  UNL1        0.0373
      4 C         138.4824  138.7032  162.7403 C.ar    1  UNL1        0.1477
      5 C         138.0968  140.0076  163.3727 C.ar    1  UNL1        0.0373
      6 C         138.1351  140.1581  164.8647 C.ar    1  UNL1        0.0002
      7 C         138.5972  139.1547  167.2162 C.3     1  UNL1        0.0991
      8 C         141.7442  141.7345  169.1375 C.3     1  UNL1        0.0393
      9 C         141.9663  141.1800  167.7615 C.3     1  UNL1        0.0229
     10 C         140.9173  140.3201  167.1211 C.3     1  UNL1        0.0728
     11 N         139.6462  140.0146  167.8566 N.3     1  UNL1       -0.2689
     12 C         139.4240  140.5691  169.2325 C.3     1  UNL1        0.0728
     13 C         140.4730  141.4291  169.8730 C.3     1  UNL1        0.0229
     14 O         144.1263  142.7711  169.1135 O.co2   1  UNL1       -0.5492
     15 C         142.7931  142.5945  169.7779 C.2     1  UNL1        0.0501
     16 O         142.5089  143.2778  171.0826 O.co2   1  UNL1       -0.5492
     17 O         138.4441  138.5528  161.2484 O.3     1  UNL1       -0.4313
     18 C         139.6182  138.9847  160.4206 C.ar    1  UNL1        0.2628
     19 N         141.0297  139.1372  160.9045 N.ar    1  UNL1       -0.2050
     20 C         141.8707  139.5866  159.7466 C.ar    1  UNL1        0.0910
     21 C         143.3334  139.8980  159.6296 C.ar    1  UNL1        0.0197
     22 C         143.9042  140.3346  158.3130 C.ar    1  UNL1        0.0016
     23 C         143.0123  140.4599  157.1134 C.ar    1  UNL1        0.0006
     24 C         141.5497  140.1485  157.2305 C.ar    1  UNL1        0.0081
     25 C         140.9789  139.7119  158.5471 C.ar    1  UNL1        0.0515
     26 S         139.5868  139.3399  158.9637 S.2     1  UNL1       -0.0283
@<TRIPOS>UNITY_ATOM_ATTR
14 1
charge -1
@<TRIPOS>BOND
     1    14    15   ar
     2    15    16   ar
     3    15     8    1
     4     8     9    1
     5     9    10    1
     6    10    11    1
     7    11     7    1
     8     7     1    1
     9     1     2   ar
    10     2     3   ar
    11     3     4   ar
    12     4    17    1
    13    17    18    1
    14    18    19   ar
    15    19    20   ar
    16    20    21   ar
    17    21    22   ar
    18    22    23   ar
    19    23    24   ar
    20    24    25   ar
    21    25    26   ar
    22     4     5   ar
    23     5     6   ar
    24    11    12    1
    25    12    13    1
    26    13     8    1
    27     6     1   ar
    28    26    18   ar
    29    25    20   ar
@<TRIPOS>MOLECULE
*****
 26 29 0 0 0
SMALL
GASTEIGER

@<TRIPOS>ATOM
      1 C         139.4977  137.9962  163.0493 C.ar    1  UNL1       -0.0059
      2 C         140.8793  137.5166  162.7161 C.ar    1  UNL1        0.0002
      3 C         141.5307  137.9390  161.4325 C.ar    1  UNL1        0.0373
      4 C         140.8003  138.8409  160.4822 C.ar    1  UNL1        0.1477
      5 C         139.4186  139.3205  160.8155 C.ar    1  UNL1        0.0373
      6 C         138.7674  138.8981  162.0990 C.ar    1  UNL1        0.0002
      7 C         138.8464  137.5738  164.3328 C.3     1  UNL1        0.0991
      8 C         139.4468  140.0096  168.0687 C.3     1  UNL1        0.0393
      9 C         140.5265  139.9525  167.0289 C.3     1  UNL1        0.0229
     10 C         140.3264  139.1406  165.7836 C.3     1  UNL1        0.0728
     11 N         139.0465  138.3857  165.5781 N.3     1  UNL1       -0.2689
     12 C         137.9669  138.4427  166.6178 C.3     1  UNL1        0.0728
     13 C         138.1670  139.2547  167.8631 C.3     1  UNL1        0.0229
     14 O         138.5763  140.8610  170.3636 O.co2   1  UNL1       -0.5492
     15 C         139.6470  140.8215  169.3139 C.2     1  UNL1        0.0501
     16 O         140.9179  141.5939  169.5094 O.co2   1  UNL1       -0.5492
     17 O         141.4515  139.2633  159.1987 O.3     1  UNL1       -0.4313
     18 C         141.6930  138.2564  158.1134 C.ar    1  UNL1        0.2628
     19 N         143.0024  137.5955  157.7993 N.ar    1  UNL1       -0.2050
     20 C         142.7861  136.6643  156.6434 C.ar    1  UNL1        0.0910
     21 C         143.7168  135.7497  155.9036 C.ar    1  UNL1        0.0197
     22 C         143.2043  134.9205  154.7636 C.ar    1  UNL1        0.0016
     23 C         141.7612  135.0059  154.3633 C.ar    1  UNL1        0.0006
     24 C         140.8306  135.9205  155.1030 C.ar    1  UNL1        0.0081
     25 C         141.3430  136.7497  156.2431 C.ar    1  UNL1        0.0515
     26 S         140.6675  137.7337  157.1516 S.2     1  UNL1       -0.0283
@<TRIPOS>UNITY_ATOM_ATTR
14 1
charge -1
@<TRIPOS>BOND
     1    14    15   ar
     2    15    16   ar
     3    15     8    1
     4     8     9    1
     5     9    10    1
     6    10    11    1
     7    11     7    1
     8     7     1    1
     9     1     2   ar
    10     2     3   ar
    11     3     4   ar
    12     4    17    1
    13    17    18    1
    14    18    19   ar
    15    19    20   ar
    16    20    21   ar
    17    21    22   ar
    18    22    23   ar
    19    23    24   ar
    20    24    25   ar
    21    25    26   ar
    22     4     5   ar
    23     5     6   ar
    24    11    12    1
    25    12    13    1
    26    13     8    1
    27     6     1   ar
    28    26    18   ar
    29    25    20   ar
