@<TRIPOS>MOLECULE
*****
 24 26 0 0 0
SMALL
GASTEIGER

@<TRIPOS>ATOM
      1 C         140.5683  141.0734  168.7428 C.3     1  UNL1        0.1907
      2 O         141.5987  141.4697  167.7273 O.3     1  UNL1       -0.3501
      3 C         141.5089  140.9468  166.3242 C.3     1  UNL1        0.1141
      4 C         141.4190  140.4240  164.9212 C.3     1  UNL1        0.0463
      5 C         142.4494  140.8203  163.9057 C.3     1  UNL1        0.0746
      6 N         143.5696  141.7394  164.2933 N.3     1  UNL1       -0.2722
      7 C         143.6595  142.2623  165.6963 C.3     1  UNL1        0.0746
      8 C         142.6291  141.8660  166.7117 C.3     1  UNL1        0.0463
      9 C         140.3886  140.0277  165.9366 C.3     1  UNL1        0.1206
     10 N         139.3582  139.6314  166.9522 N.am    1  UNL1       -0.2734
     11 C         138.2380  138.7122  166.5646 C.3     1  UNL1        0.1150
     12 C         139.4481  140.1542  168.3552 C.2     1  UNL1        0.2529
     13 O         138.4177  139.7579  169.3708 O.2     1  UNL1       -0.2722
     14 C         141.5597  140.9258  171.1398 C.3     1  UNL1        0.0030
     15 C         140.6582  141.5962  170.1459 C.3     1  UNL1        0.0362
     16 C         139.8465  142.7894  170.5550 C.3     1  UNL1        0.0030
     17 C         144.6001  142.1357  163.2777 C.3     1  UNL1        0.0768
     18 C         144.4890  143.4545  162.5719 C.3     1  UNL1        0.0437
     19 C         143.1553  144.1302  162.4503 C.ar    1  UNL1       -0.0208
     20 C         142.3119  143.9110  161.2294 C.ar    1  UNL1       -0.0042
     21 C         140.9783  144.5867  161.1079 C.ar    1  UNL1       -0.0003
     22 C         140.4879  145.4815  162.2074 C.ar    1  UNL1       -0.0000
     23 C         141.3313  145.7007  163.4283 C.ar    1  UNL1       -0.0003
     24 C         142.6649  145.0251  163.5498 C.ar    1  UNL1       -0.0042
@<TRIPOS>BOND
     1    14    15    1
     2    15    16    1
     3    15     1    1
     4     1     2    1
     5     2     3    1
     6     3     4    1
     7     4     5    1
     8     5     6    1
     9     6    17    1
    10    17    18    1
    11    18    19    1
    12    19    20   ar
    13    20    21   ar
    14    21    22   ar
    15    22    23   ar
    16    23    24   ar
    17     6     7    1
    18     7     8    1
    19     3     9    1
    20     9    10    1
    21    10    11    1
    22    10    12   am
    23    12    13    2
    24    12     1    1
    25     8     3    1
    26    24    19   ar
@<TRIPOS>MOLECULE
*****
 24 26 0 0 0
SMALL
GASTEIGER

@<TRIPOS>ATOM
      1 C         140.2080  143.1293  162.3607 C.3     1  UNL1        0.1907
      2 O         140.9972  142.5011  163.4709 O.3     1  UNL1       -0.3501
      3 C         140.6056  141.1532  164.0000 C.3     1  UNL1        0.1141
      4 C         140.2140  139.8054  164.5290 C.3     1  UNL1        0.0463
      5 C         141.0032  139.1773  165.6392 C.3     1  UNL1        0.0746
      6 N         142.1840  139.8970  166.2203 N.3     1  UNL1       -0.2722
      7 C         142.5757  141.2448  165.6913 C.3     1  UNL1        0.0746
      8 C         141.7865  141.8729  164.5811 C.3     1  UNL1        0.0463
      9 C         139.4248  140.4336  163.4189 C.3     1  UNL1        0.1206
     10 N         138.6356  141.0618  162.3086 N.am    1  UNL1       -0.2734
     11 C         137.4547  140.3421  161.7275 C.3     1  UNL1        0.1150
     12 C         139.0272  142.4096  161.7796 C.2     1  UNL1        0.2529
     13 O         138.2380  143.0378  160.6693 O.2     1  UNL1       -0.2722
     14 C         141.6364  144.5872  160.7531 C.3     1  UNL1        0.0030
     15 C         140.5996  144.4772  161.8315 C.3     1  UNL1        0.0362
     16 C         139.9546  145.7149  162.3809 C.3     1  UNL1        0.0030
     17 C         142.9732  139.2687  167.3306 C.3     1  UNL1        0.0768
     18 C         142.4774  139.3525  168.7437 C.3     1  UNL1        0.0437
     19 C         141.7480  140.5770  169.2113 C.ar    1  UNL1       -0.0208
     20 C         140.2834  140.5028  169.5268 C.ar    1  UNL1       -0.0042
     21 C         139.5540  141.7273  169.9944 C.ar    1  UNL1       -0.0003
     22 C         140.2892  143.0259  170.1464 C.ar    1  UNL1       -0.0000
     23 C         141.7537  143.1001  169.8309 C.ar    1  UNL1       -0.0003
     24 C         142.4831  141.8757  169.3633 C.ar    1  UNL1       -0.0042
@<TRIPOS>BOND
     1    14    15    1
     2    15    16    1
     3    15     1    1
     4     1     2    1
     5     2     3    1
     6     3     4    1
     7     4     5    1
     8     5     6    1
     9     6    17    1
    10    17    18    1
    11    18    19    1
    12    19    20   ar
    13    20    21   ar
    14    21    22   ar
    15    22    23   ar
    16    23    24   ar
    17     6     7    1
    18     7     8    1
    19     3     9    1
    20     9    10    1
    21    10    11    1
    22    10    12   am
    23    12    13    2
    24    12     1    1
    25     8     3    1
    26    24    19   ar
@<TRIPOS>MOLECULE
*****
 24 26 0 0 0
SMALL
GASTEIGER

@<TRIPOS>ATOM
      1 C         141.2067  143.3846  162.0887 C.3     1  UNL1        0.1907
      2 O         140.5400  142.6974  163.2433 O.3     1  UNL1       -0.3501
      3 C         141.2918  141.6752  164.0434 C.3     1  UNL1        0.1141
      4 C         142.0436  140.6531  164.8434 C.3     1  UNL1        0.0463
      5 C         141.3768  139.9659  165.9980 C.3     1  UNL1        0.0746
      6 N         139.9583  140.3007  166.3525 N.3     1  UNL1       -0.2722
      7 C         139.2065  141.3228  165.5525 C.3     1  UNL1        0.0746
      8 C         139.8732  142.0100  164.3979 C.3     1  UNL1        0.0463
      9 C         142.7103  141.3404  163.6889 C.3     1  UNL1        0.1206
     10 N         143.3770  142.0277  162.5342 N.am    1  UNL1       -0.2734
     11 C         144.7955  141.6929  162.1797 C.3     1  UNL1        0.1150
     12 C         142.6252  143.0498  161.7342 C.2     1  UNL1        0.2529
     13 O         143.2920  143.7372  160.5795 O.2     1  UNL1       -0.2722
     14 C         140.2106  145.7730  161.8575 C.3     1  UNL1        0.0030
     15 C         140.4549  144.4068  161.2886 C.3     1  UNL1        0.0362
     16 C         139.9475  144.0627  159.9197 C.3     1  UNL1        0.0030
     17 C         139.2916  139.6133  167.5072 C.3     1  UNL1        0.0768
     18 C         139.3277  140.2343  168.8721 C.3     1  UNL1        0.0437
     19 C         140.5154  141.0471  169.2951 C.ar    1  UNL1       -0.0208
     20 C         141.8327  140.3753  169.5468 C.ar    1  UNL1       -0.0042
     21 C         143.0203  141.1880  169.9698 C.ar    1  UNL1       -0.0003
     22 C         142.8907  142.6725  170.1411 C.ar    1  UNL1       -0.0000
     23 C         141.5734  143.3443  169.8894 C.ar    1  UNL1       -0.0003
     24 C         140.3858  142.5316  169.4664 C.ar    1  UNL1       -0.0042
@<TRIPOS>BOND
     1    14    15    1
     2    15    16    1
     3    15     1    1
     4     1     2    1
     5     2     3    1
     6     3     4    1
     7     4     5    1
     8     5     6    1
     9     6    17    1
    10    17    18    1
    11    18    19    1
    12    19    20   ar
    13    20    21   ar
    14    21    22   ar
    15    22    23   ar
    16    23    24   ar
    17     6     7    1
    18     7     8    1
    19     3     9    1
    20     9    10    1
    21    10    11    1
    22    10    12   am
    23    12    13    2
    24    12     1    1
    25     8     3    1
    26    24    19   ar
@<TRIPOS>MOLECULE
*****
 24 26 0 0 0
SMALL
GASTEIGER

@<TRIPOS>ATOM
      1 C         141.7490  144.4591  159.0584 C.3     1  UNL1        0.1907
      2 O         142.7237  143.7390  159.9423 O.3     1  UNL1       -0.3501
      3 C         142.6364  143.8876  161.4324 C.3     1  UNL1        0.1141
      4 C         142.5492  144.0363  162.9225 C.3     1  UNL1        0.0463
      5 C         143.5239  143.3161  163.8063 C.3     1  UNL1        0.0746
      6 N         144.5858  142.4472  163.2002 N.3     1  UNL1       -0.2722
      7 C         144.6730  142.2986  161.7102 C.3     1  UNL1        0.0746
      8 C         143.6984  143.0188  160.8263 C.3     1  UNL1        0.0463
      9 C         141.5745  144.7564  162.0386 C.3     1  UNL1        0.1206
     10 N         140.5998  145.4766  161.1546 N.am    1  UNL1       -0.2734
     11 C         139.5379  146.3455  161.7608 C.3     1  UNL1        0.1150
     12 C         140.6871  145.3280  159.6646 C.2     1  UNL1        0.2529
     13 O         139.7123  146.0482  158.7806 O.2     1  UNL1       -0.2722
     14 C         141.4732  143.0064  156.9222 C.3     1  UNL1        0.0030
     15 C         141.8362  144.3105  157.5683 C.3     1  UNL1        0.0362
     16 C         142.2864  145.4660  156.7244 C.3     1  UNL1        0.0030
     17 C         145.5605  141.7270  164.0842 C.3     1  UNL1        0.0768
     18 C         145.5724  140.2276  164.1221 C.3     1  UNL1        0.0437
     19 C         144.2802  139.4687  164.1878 C.ar    1  UNL1       -0.0208
     20 C         143.6885  138.8855  162.9389 C.ar    1  UNL1       -0.0042
     21 C         142.3963  138.1267  163.0047 C.ar    1  UNL1       -0.0003
     22 C         141.6958  137.9510  164.3193 C.ar    1  UNL1       -0.0000
     23 C         142.2875  138.5341  165.5683 C.ar    1  UNL1       -0.0003
     24 C         143.5797  139.2929  165.5025 C.ar    1  UNL1       -0.0042
@<TRIPOS>BOND
     1    14    15    1
     2    15    16    1
     3    15     1    1
     4     1     2    1
     5     2     3    1
     6     3     4    1
     7     4     5    1
     8     5     6    1
     9     6    17    1
    10    17    18    1
    11    18    19    1
    12    19    20   ar
    13    20    21   ar
    14    21    22   ar
    15    22    23   ar
    16    23    24   ar
    17     6     7    1
    18     7     8    1
    19     3     9    1
    20     9    10    1
    21    10    11    1
    22    10    12   am
    23    12    13    2
    24    12     1    1
    25     8     3    1
    26    24    19   ar
@<TRIPOS>MOLECULE
*****
 24 26 0 0 0
SMALL
GASTEIGER

@<TRIPOS>ATOM
      1 C         142.2298  142.8397  161.4786 C.3     1  UNL1        0.1907
      2 O         141.7982  141.9192  162.5815 O.3     1  UNL1       -0.3501
      3 C         140.6682  142.3114  163.4868 C.3     1  UNL1        0.1141
      4 C         139.5383  142.7037  164.3919 C.3     1  UNL1        0.0463
      5 C         139.1067  141.7832  165.4948 C.3     1  UNL1        0.0746
      6 N         139.8050  140.4705  165.6925 N.3     1  UNL1       -0.2722
      7 C         140.9349  140.0782  164.7873 C.3     1  UNL1        0.0746
      8 C         141.3665  140.9987  163.6844 C.3     1  UNL1        0.0463
      9 C         139.9699  143.6242  163.2891 C.3     1  UNL1        0.1206
     10 N         140.4016  144.5447  162.1861 N.am    1  UNL1       -0.2734
     11 C         139.7033  145.8574  161.9884 C.3     1  UNL1        0.1150
     12 C         141.5315  144.1524  161.2809 C.2     1  UNL1        0.2529
     13 O         141.9632  145.0729  160.1780 O.2     1  UNL1       -0.2722
     14 C         144.7790  142.6238  161.0257 C.3     1  UNL1        0.0030
     15 C         143.3597  142.4474  160.5733 C.3     1  UNL1        0.0362
     16 C         143.0704  141.8788  159.2158 C.3     1  UNL1        0.0030
     17 C         139.3734  139.5500  166.7954 C.3     1  UNL1        0.0768
     18 C         139.4114  140.0172  168.2203 C.3     1  UNL1        0.0437
     19 C         140.5726  140.8292  168.7126 C.ar    1  UNL1       -0.0208
     20 C         141.9155  140.1856  168.8918 C.ar    1  UNL1       -0.0042
     21 C         143.0766  140.9977  169.3841 C.ar    1  UNL1       -0.0003
     22 C         142.8947  142.4534  169.6972 C.ar    1  UNL1       -0.0000
     23 C         141.5518  143.0969  169.5179 C.ar    1  UNL1       -0.0003
     24 C         140.3907  142.2849  169.0257 C.ar    1  UNL1       -0.0042
@<TRIPOS>BOND
     1    14    15    1
     2    15    16    1
     3    15     1    1
     4     1     2    1
     5     2     3    1
     6     3     4    1
     7     4     5    1
     8     5     6    1
     9     6    17    1
    10    17    18    1
    11    18    19    1
    12    19    20   ar
    13    20    21   ar
    14    21    22   ar
    15    22    23   ar
    16    23    24   ar
    17     6     7    1
    18     7     8    1
    19     3     9    1
    20     9    10    1
    21    10    11    1
    22    10    12   am
    23    12    13    2
    24    12     1    1
    25     8     3    1
    26    24    19   ar
@<TRIPOS>MOLECULE
*****
 24 26 0 0 0
SMALL
GASTEIGER

@<TRIPOS>ATOM
      1 C         139.4048  143.0087  163.4112 C.3     1  UNL1        0.1907
      2 O         139.7712  143.8324  162.2124 O.3     1  UNL1       -0.3501
      3 C         139.4526  143.3338  160.8340 C.3     1  UNL1        0.1141
      4 C         139.1339  142.8352  159.4557 C.3     1  UNL1        0.0463
      5 C         139.5004  143.6589  158.2569 C.3     1  UNL1        0.0746
      6 N         140.1854  144.9812  158.4364 N.3     1  UNL1       -0.2722
      7 C         140.5040  145.4798  159.8147 C.3     1  UNL1        0.0746
      8 C         140.1376  144.6561  161.0135 C.3     1  UNL1        0.0463
      9 C         138.7675  142.0115  160.6545 C.3     1  UNL1        0.1206
     10 N         138.4011  141.1878  161.8534 N.am    1  UNL1       -0.2734
     11 C         137.7161  139.8655  161.6739 C.3     1  UNL1        0.1150
     12 C         138.7197  141.6864  163.2317 C.2     1  UNL1        0.2529
     13 O         138.3533  140.8627  164.4306 O.2     1  UNL1       -0.2722
     14 C         138.8182  144.5008  165.4557 C.3     1  UNL1        0.0030
     15 C         139.7234  143.5073  164.7896 C.3     1  UNL1        0.0362
     16 C         140.9472  143.0124  165.5020 C.3     1  UNL1        0.0030
     17 C         140.5518  145.8049  157.2375 C.3     1  UNL1        0.0768
     18 C         139.4999  146.1827  156.2371 C.3     1  UNL1        0.0437
     19 C         139.3072  147.6212  155.8583 C.ar    1  UNL1       -0.0208
     20 C         139.8382  148.1302  154.5510 C.ar    1  UNL1       -0.0042
     21 C         139.6455  149.5687  154.1722 C.ar    1  UNL1       -0.0003
     22 C         138.9218  150.4983  155.1008 C.ar    1  UNL1       -0.0000
     23 C         138.3908  149.9893  156.4080 C.ar    1  UNL1       -0.0003
     24 C         138.5835  148.5508  156.7868 C.ar    1  UNL1       -0.0042
@<TRIPOS>BOND
     1    14    15    1
     2    15    16    1
     3    15     1    1
     4     1     2    1
     5     2     3    1
     6     3     4    1
     7     4     5    1
     8     5     6    1
     9     6    17    1
    10    17    18    1
    11    18    19    1
    12    19    20   ar
    13    20    21   ar
    14    21    22   ar
    15    22    23   ar
    16    23    24   ar
    17     6     7    1
    18     7     8    1
    19     3     9    1
    20     9    10    1
    21    10    11    1
    22    10    12   am
    23    12    13    2
    24    12     1    1
    25     8     3    1
    26    24    19   ar
@<TRIPOS>MOLECULE
*****
 24 26 0 0 0
SMALL
GASTEIGER

@<TRIPOS>ATOM
      1 C         140.0161  144.6553  158.3932 C.3     1  UNL1        0.1907
      2 O         140.1668  144.6808  159.8854 O.3     1  UNL1       -0.3501
      3 C         139.5686  143.5861  160.7184 C.3     1  UNL1        0.1141
      4 C         138.9705  142.4914  161.5514 C.3     1  UNL1        0.0463
      5 C         139.1211  142.5169  163.0436 C.3     1  UNL1        0.0746
      6 N         139.8699  143.6371  163.7028 N.3     1  UNL1       -0.2722
      7 C         140.4680  144.7318  162.8698 C.3     1  UNL1        0.0746
      8 C         140.3174  144.7063  161.3777 C.3     1  UNL1        0.0463
      9 C         138.8199  142.4659  160.0592 C.3     1  UNL1        0.1206
     10 N         138.6692  142.4404  158.5670 N.am    1  UNL1       -0.2734
     11 C         137.9205  141.3203  157.9078 C.3     1  UNL1        0.1150
     12 C         139.2674  143.5351  157.7340 C.2     1  UNL1        0.2529
     13 O         139.1167  143.5097  156.2418 O.2     1  UNL1       -0.2722
     14 C         139.7262  146.7741  156.9178 C.3     1  UNL1        0.0030
     15 C         140.6143  145.7500  157.5602 C.3     1  UNL1        0.0362
     16 C         142.1004  145.8206  157.3695 C.3     1  UNL1        0.0030
     17 C         140.0205  143.6625  165.1950 C.3     1  UNL1        0.0768
     18 C         140.8039  142.5875  165.8882 C.3     1  UNL1        0.0437
     19 C         140.4049  142.1359  167.2619 C.ar    1  UNL1       -0.0208
     20 C         140.5234  143.0762  168.4245 C.ar    1  UNL1       -0.0042
     21 C         140.1243  142.6246  169.7980 C.ar    1  UNL1       -0.0003
     22 C         139.6067  141.2326  170.0090 C.ar    1  UNL1       -0.0000
     23 C         139.4882  140.2923  168.8464 C.ar    1  UNL1       -0.0003
     24 C         139.8872  140.7439  167.4728 C.ar    1  UNL1       -0.0042
@<TRIPOS>BOND
     1    14    15    1
     2    15    16    1
     3    15     1    1
     4     1     2    1
     5     2     3    1
     6     3     4    1
     7     4     5    1
     8     5     6    1
     9     6    17    1
    10    17    18    1
    11    18    19    1
    12    19    20   ar
    13    20    21   ar
    14    21    22   ar
    15    22    23   ar
    16    23    24   ar
    17     6     7    1
    18     7     8    1
    19     3     9    1
    20     9    10    1
    21    10    11    1
    22    10    12   am
    23    12    13    2
    24    12     1    1
    25     8     3    1
    26    24    19   ar
@<TRIPOS>MOLECULE
*****
 24 26 0 0 0
SMALL
GASTEIGER

@<TRIPOS>ATOM
      1 C         139.1843  140.0622  166.2057 C.3     1  UNL1        0.1907
      2 O         139.2686  140.8981  164.9630 O.3     1  UNL1       -0.3501
      3 C         139.8991  142.2582  165.0153 C.3     1  UNL1        0.1141
      4 C         140.5295  143.6183  165.0676 C.3     1  UNL1        0.0463
      5 C         140.6138  144.4541  163.8250 C.3     1  UNL1        0.0746
      6 N         140.0677  143.9299  162.5300 N.3     1  UNL1       -0.2722
      7 C         139.4373  142.5698  162.4777 C.3     1  UNL1        0.0746
      8 C         139.3530  141.7340  163.7203 C.3     1  UNL1        0.0463
      9 C         140.4452  142.7824  166.3103 C.3     1  UNL1        0.1206
     10 N         140.3608  141.9465  167.5530 N.am    1  UNL1       -0.2734
     11 C         140.9069  142.4707  168.8479 C.3     1  UNL1        0.1150
     12 C         139.7304  140.5865  167.5006 C.2     1  UNL1        0.2529
     13 O         139.6461  139.7505  168.7433 O.2     1  UNL1       -0.2722
     14 C         137.4531  138.3484  167.1090 C.3     1  UNL1        0.0030
     15 C         138.5539  138.7021  166.1534 C.3     1  UNL1        0.0362
     16 C         139.0243  137.6957  165.1455 C.3     1  UNL1        0.0030
     17 C         140.1520  144.7658  161.2873 C.3     1  UNL1        0.0768
     18 C         141.4031  144.7555  160.4600 C.3     1  UNL1        0.0437
     19 C         141.3311  145.0338  158.9877 C.ar    1  UNL1       -0.0208
     20 C         140.2335  145.8975  158.4406 C.ar    1  UNL1       -0.0042
     21 C         140.1615  146.1758  156.9684 C.ar    1  UNL1       -0.0003
     22 C         141.1871  145.5905  156.0434 C.ar    1  UNL1       -0.0000
     23 C         142.2846  144.7268  156.5905 C.ar    1  UNL1       -0.0003
     24 C         142.3566  144.4485  158.0627 C.ar    1  UNL1       -0.0042
@<TRIPOS>BOND
     1    14    15    1
     2    15    16    1
     3    15     1    1
     4     1     2    1
     5     2     3    1
     6     3     4    1
     7     4     5    1
     8     5     6    1
     9     6    17    1
    10    17    18    1
    11    18    19    1
    12    19    20   ar
    13    20    21   ar
    14    21    22   ar
    15    22    23   ar
    16    23    24   ar
    17     6     7    1
    18     7     8    1
    19     3     9    1
    20     9    10    1
    21    10    11    1
    22    10    12   am
    23    12    13    2
    24    12     1    1
    25     8     3    1
    26    24    19   ar
@<TRIPOS>MOLECULE
*****
 24 26 0 0 0
SMALL
GASTEIGER

@<TRIPOS>ATOM
      1 C         143.9017  140.5734  157.9177 C.3     1  UNL1        0.1907
      2 O         143.9577  140.5287  159.4160 O.3     1  UNL1       -0.3501
      3 C         143.4574  139.3197  160.1495 C.3     1  UNL1        0.1141
      4 C         142.9571  138.1106  160.8829 C.3     1  UNL1        0.0463
      5 C         143.0131  138.0659  162.3811 C.3     1  UNL1        0.0746
      6 N         143.5693  139.2302  163.1460 N.3     1  UNL1       -0.2722
      7 C         144.0696  140.4393  162.4126 C.3     1  UNL1        0.0746
      8 C         144.0136  140.4840  160.9143 C.3     1  UNL1        0.0463
      9 C         142.9012  138.1553  159.3846 C.3     1  UNL1        0.1206
     10 N         142.8452  138.2001  157.8863 N.am    1  UNL1       -0.2734
     11 C         142.2890  137.0358  157.1215 C.3     1  UNL1        0.1150
     12 C         143.3455  139.4091  157.1529 C.2     1  UNL1        0.2529
     13 O         143.2895  139.4539  155.6545 O.2     1  UNL1       -0.2722
     14 C         145.8580  141.9048  156.8451 C.3     1  UNL1        0.0030
     15 C         144.4020  141.7825  157.1842 C.3     1  UNL1        0.0362
     16 C         143.4462  142.8692  156.7899 C.3     1  UNL1        0.0030
     17 C         143.6253  139.1855  164.6443 C.3     1  UNL1        0.0768
     18 C         142.7355  138.2439  165.4003 C.3     1  UNL1        0.0437
     19 C         141.2749  138.5507  165.5515 C.ar    1  UNL1       -0.0208
     20 C         140.2555  137.7216  164.8281 C.ar    1  UNL1       -0.0042
     21 C         138.7951  138.0284  164.9794 C.ar    1  UNL1       -0.0003
     22 C         138.3541  139.1644  165.8540 C.ar    1  UNL1       -0.0000
     23 C         139.3734  139.9935  166.5775 C.ar    1  UNL1       -0.0003
     24 C         140.8339  139.6866  166.4262 C.ar    1  UNL1       -0.0042
@<TRIPOS>BOND
     1    14    15    1
     2    15    16    1
     3    15     1    1
     4     1     2    1
     5     2     3    1
     6     3     4    1
     7     4     5    1
     8     5     6    1
     9     6    17    1
    10    17    18    1
    11    18    19    1
    12    19    20   ar
    13    20    21   ar
    14    21    22   ar
    15    22    23   ar
    16    23    24   ar
    17     6     7    1
    18     7     8    1
    19     3     9    1
    20     9    10    1
    21    10    11    1
    22    10    12   am
    23    12    13    2
    24    12     1    1
    25     8     3    1
    26    24    19   ar
