@<TRIPOS>MOLECULE
*****
 24 26 0 0 0
SMALL
GASTEIGER

@<TRIPOS>ATOM
      1 C         138.9552  141.0496  165.4823 C.2     1  UNL1       -0.0238
      2 C         138.8352  142.4891  165.0780 C.2     1  UNL1       -0.0420
      3 C         139.8333  143.2783  165.8723 C.3     1  UNL1        0.0480
      4 C         140.5702  142.3266  166.7674 C.ar    1  UNL1       -0.0176
      5 C         141.6653  142.5363  167.7708 C.ar    1  UNL1        0.0074
      6 C         142.2176  141.3686  168.5331 C.ar    1  UNL1        0.0574
      7 CL        143.3127  141.5782  169.5366 Cl      1  UNL1       -0.0823
      8 C         141.6749  139.9911  168.2921 C.ar    1  UNL1        0.0114
      9 C         140.5799  139.7814  167.2887 C.ar    1  UNL1        0.0002
     10 C         140.0275  140.9492  166.5264 C.ar    1  UNL1       -0.0078
     11 C         138.1452  139.9105  164.9380 C.3     1  UNL1        0.0763
     12 C         139.4081  138.2090  163.4347 C.ar    1  UNL1        0.2393
     13 N         139.7138  137.6534  162.0754 N.ar    1  UNL1       -0.2075
     14 C         139.0624  138.2436  160.8600 C.ar    1  UNL1        0.1227
     15 C         138.1052  139.3896  161.0039 C.ar    1  UNL1        0.1193
     16 N         137.7995  139.9451  162.3633 N.ar    1  UNL1       -0.2415
     17 C         138.4509  139.3549  163.5787 C.ar    1  UNL1        0.1163
     18 C         141.5350  137.3479  164.6534 C.3     1  UNL1        0.2543
     19 O         140.0596  137.6186  164.6501 O.3     1  UNL1       -0.4553
     20 C         137.8840  143.0422  164.0586 C.3     1  UNL1        0.0394
     21 C         138.1276  144.3972  163.4629 C.3     1  UNL1        0.0765
     22 N         138.9639  144.5330  162.2252 N.3     1  UNL1       -0.2700
     23 C         139.1584  143.3540  161.3183 C.3     1  UNL1        0.0897
     24 C         139.6057  145.8477  161.8942 C.3     1  UNL1        0.0897
@<TRIPOS>BOND
     1    18    19    1
     2    19    12    1
     3    12    13   ar
     4    13    14   ar
     5    14    15   ar
     6    15    16   ar
     7    16    17   ar
     8    17    11    1
     9    11     1    1
    10     1     2    2
    11     2    20    1
    12    20    21    1
    13    21    22    1
    14    22    23    1
    15    22    24    1
    16     2     3    1
    17     3     4    1
    18     4     5   ar
    19     5     6   ar
    20     6     7    1
    21     6     8   ar
    22     8     9   ar
    23     9    10   ar
    24    17    12   ar
    25    10     1    1
    26    10     4   ar
@<TRIPOS>MOLECULE
*****
 24 26 0 0 0
SMALL
GASTEIGER

@<TRIPOS>ATOM
      1 C         142.4407  139.9714  166.0833 C.2     1  UNL1       -0.0238
      2 C         143.3718  141.0620  165.6432 C.2     1  UNL1       -0.0420
      3 C         143.1267  142.2595  166.5125 C.3     1  UNL1        0.0480
      4 C         142.0442  141.9091  167.4900 C.ar    1  UNL1       -0.0176
      5 C         141.3898  142.6950  168.5872 C.ar    1  UNL1        0.0074
      6 C         140.3114  142.0667  169.4192 C.ar    1  UNL1        0.0574
      7 CL        139.6569  142.8525  170.5166 Cl      1  UNL1       -0.0823
      8 C         139.8874  140.6525  169.1540 C.ar    1  UNL1        0.0114
      9 C         140.5418  139.8666  168.0567 C.ar    1  UNL1        0.0002
     10 C         141.6202  140.4949  167.2247 C.ar    1  UNL1       -0.0078
     11 C         142.3467  138.5983  165.4868 C.3     1  UNL1        0.0763
     12 C         141.7892  138.0193  163.0162 C.ar    1  UNL1        0.2393
     13 N         140.7786  137.7345  161.9450 N.ar    1  UNL1       -0.2075
     14 C         139.3149  137.7439  162.2731 C.ar    1  UNL1        0.1227
     15 C         138.8618  138.0381  163.6724 C.ar    1  UNL1        0.1193
     16 N         139.8724  138.3229  164.7437 N.ar    1  UNL1       -0.2415
     17 C         141.3362  138.3135  164.4156 C.ar    1  UNL1        0.1163
     18 C         143.7003  137.9624  161.2572 C.3     1  UNL1        0.2543
     19 O         143.2528  138.0099  162.6881 O.3     1  UNL1       -0.4553
     20 C         144.3723  140.9710  164.5293 C.3     1  UNL1        0.0394
     21 C         145.1224  142.1945  164.0931 C.3     1  UNL1        0.0765
     22 N         144.6182  143.0124  162.9413 N.3     1  UNL1       -0.2700
     23 C         144.7734  142.5067  161.5376 C.3     1  UNL1        0.0897
     24 C         143.9590  144.3360  163.1930 C.3     1  UNL1        0.0897
@<TRIPOS>BOND
     1    18    19    1
     2    19    12    1
     3    12    13   ar
     4    13    14   ar
     5    14    15   ar
     6    15    16   ar
     7    16    17   ar
     8    17    11    1
     9    11     1    1
    10     1     2    2
    11     2    20    1
    12    20    21    1
    13    21    22    1
    14    22    23    1
    15    22    24    1
    16     2     3    1
    17     3     4    1
    18     4     5   ar
    19     5     6   ar
    20     6     7    1
    21     6     8   ar
    22     8     9   ar
    23     9    10   ar
    24    17    12   ar
    25    10     1    1
    26    10     4   ar
@<TRIPOS>MOLECULE
*****
 24 26 0 0 0
SMALL
GASTEIGER

@<TRIPOS>ATOM
      1 C         140.1172  141.4452  165.6587 C.2     1  UNL1       -0.0238
      2 C         141.2431  142.1629  164.9752 C.2     1  UNL1       -0.0420
      3 C         142.4236  142.1608  165.9006 C.3     1  UNL1        0.0480
      4 C         142.0273  141.4419  167.1560 C.ar    1  UNL1       -0.0176
      5 C         142.7802  141.1328  168.4159 C.ar    1  UNL1        0.0074
      6 C         142.1077  140.3815  169.5264 C.ar    1  UNL1        0.0574
      7 CL        142.8607  140.0724  170.7864 Cl      1  UNL1       -0.0823
      8 C         140.6822  139.9392  169.3769 C.ar    1  UNL1        0.0114
      9 C         139.9293  140.2482  168.1169 C.ar    1  UNL1        0.0002
     10 C         140.6018  140.9996  167.0065 C.ar    1  UNL1       -0.0078
     11 C         138.7471  141.2137  165.0936 C.3     1  UNL1        0.0763
     12 C         137.8748  140.5249  162.7453 C.ar    1  UNL1        0.2393
     13 N         137.6645  139.4759  161.6940 N.ar    1  UNL1       -0.2075
     14 C         138.1161  138.0667  161.9395 C.ar    1  UNL1        0.1227
     15 C         138.7781  137.7065  163.2365 C.ar    1  UNL1        0.1193
     16 N         138.9884  138.7555  164.2878 N.ar    1  UNL1       -0.2415
     17 C         138.5367  140.1648  164.0423 C.ar    1  UNL1        0.1163
     18 C         138.0189  142.7272  161.3746 C.3     1  UNL1        0.2543
     19 O         137.4231  141.9340  162.4997 O.3     1  UNL1       -0.4553
     20 C         141.1967  142.7751  163.6066 C.3     1  UNL1        0.0394
     21 C         141.2460  144.2660  163.4499 C.3     1  UNL1        0.0765
     22 N         139.9756  145.0443  163.2752 N.3     1  UNL1       -0.2700
     23 C         138.8690  144.9086  164.2787 C.3     1  UNL1        0.0897
     24 C         139.8119  145.9581  162.0971 C.3     1  UNL1        0.0897
@<TRIPOS>BOND
     1    18    19    1
     2    19    12    1
     3    12    13   ar
     4    13    14   ar
     5    14    15   ar
     6    15    16   ar
     7    16    17   ar
     8    17    11    1
     9    11     1    1
    10     1     2    2
    11     2    20    1
    12    20    21    1
    13    21    22    1
    14    22    23    1
    15    22    24    1
    16     2     3    1
    17     3     4    1
    18     4     5   ar
    19     5     6   ar
    20     6     7    1
    21     6     8   ar
    22     8     9   ar
    23     9    10   ar
    24    17    12   ar
    25    10     1    1
    26    10     4   ar
@<TRIPOS>MOLECULE
*****
 24 26 0 0 0
SMALL
GASTEIGER

@<TRIPOS>ATOM
      1 C         140.1226  139.2152  165.9004 C.2     1  UNL1       -0.0238
      2 C         141.4128  138.7099  165.3260 C.2     1  UNL1       -0.0420
      3 C         142.4893  138.9194  166.3494 C.3     1  UNL1        0.0480
      4 C         141.8643  139.5542  167.5562 C.ar    1  UNL1       -0.0176
      5 C         142.4382  139.9894  168.8720 C.ar    1  UNL1        0.0074
      6 C         141.5494  140.6074  169.9102 C.ar    1  UNL1        0.0574
      7 CL        142.1232  141.0426  171.2260 Cl      1  UNL1       -0.0823
      8 C         140.0866  140.7902  169.6327 C.ar    1  UNL1        0.0114
      9 C         139.5128  140.3551  168.3169 C.ar    1  UNL1        0.0002
     10 C         140.4016  139.7370  167.2787 C.ar    1  UNL1       -0.0078
     11 C         138.7876  139.2012  165.2165 C.3     1  UNL1        0.0763
     12 C         137.9249  140.1379  162.9519 C.ar    1  UNL1        0.2393
     13 N         137.5051  141.3008  162.1026 N.ar    1  UNL1       -0.2075
     14 C         137.5280  142.6898  162.6684 C.ar    1  UNL1        0.1227
     15 C         137.9709  142.9160  164.0836 C.ar    1  UNL1        0.1193
     16 N         138.3907  141.7531  164.9329 N.ar    1  UNL1       -0.2415
     17 C         138.3678  140.3640  164.3671 C.ar    1  UNL1        0.1163
     18 C         138.7535  138.4085  161.1991 C.3     1  UNL1        0.2543
     19 O         137.9019  138.7490  162.3860 O.3     1  UNL1       -0.4553
     20 C         141.5947  138.1018  163.9669 C.3     1  UNL1        0.0394
     21 C         142.0550  138.9522  162.8203 C.3     1  UNL1        0.0765
     22 N         143.4962  138.9348  162.4048 N.3     1  UNL1       -0.2700
     23 C         144.4580  139.9250  162.9917 C.3     1  UNL1        0.0897
     24 C         143.9756  137.9272  161.4023 C.3     1  UNL1        0.0897
@<TRIPOS>BOND
     1    18    19    1
     2    19    12    1
     3    12    13   ar
     4    13    14   ar
     5    14    15   ar
     6    15    16   ar
     7    16    17   ar
     8    17    11    1
     9    11     1    1
    10     1     2    2
    11     2    20    1
    12    20    21    1
    13    21    22    1
    14    22    23    1
    15    22    24    1
    16     2     3    1
    17     3     4    1
    18     4     5   ar
    19     5     6   ar
    20     6     7    1
    21     6     8   ar
    22     8     9   ar
    23     9    10   ar
    24    17    12   ar
    25    10     1    1
    26    10     4   ar
@<TRIPOS>MOLECULE
*****
 24 26 0 0 0
SMALL
GASTEIGER

@<TRIPOS>ATOM
      1 C         140.9109  142.8847  165.3590 C.2     1  UNL1       -0.0238
      2 C         142.3218  143.2380  164.9919 C.2     1  UNL1       -0.0420
      3 C         143.2408  142.4975  165.9177 C.3     1  UNL1        0.0480
      4 C         142.3980  141.6867  166.8570 C.ar    1  UNL1       -0.0176
      5 C         142.7557  140.7614  167.9821 C.ar    1  UNL1        0.0074
      6 C         141.6734  140.0754  168.7618 C.ar    1  UNL1        0.0574
      7 CL        142.0311  139.1500  169.8869 Cl      1  UNL1       -0.0823
      8 C         140.2335  140.3147  168.4165 C.ar    1  UNL1        0.0114
      9 C         139.8758  141.2400  167.2915 C.ar    1  UNL1        0.0002
     10 C         140.9580  141.9260  166.5117 C.ar    1  UNL1       -0.0078
     11 C         139.6707  143.3998  164.6908 C.3     1  UNL1        0.0763
     12 C         138.6665  143.6509  162.3079 C.ar    1  UNL1        0.2393
     13 N         138.1933  143.0325  161.0258 N.ar    1  UNL1       -0.2075
     14 C         138.2511  141.5447  160.8446 C.ar    1  UNL1        0.1227
     15 C         138.7821  140.6751  161.9455 C.ar    1  UNL1        0.1193
     16 N         139.2553  141.2935  163.2276 N.ar    1  UNL1       -0.2415
     17 C         139.1975  142.7815  163.4088 C.ar    1  UNL1        0.1163
     18 C         139.6910  146.0065  161.9182 C.3     1  UNL1        0.2543
     19 O         138.6087  145.1388  162.4890 O.3     1  UNL1       -0.4553
     20 C         142.7401  144.1683  163.8922 C.3     1  UNL1        0.0394
     21 C         144.1436  144.1231  163.3649 C.3     1  UNL1        0.0765
     22 N         144.5772  142.9902  162.4826 N.3     1  UNL1       -0.2700
     23 C         144.0954  142.9176  161.0639 C.3     1  UNL1        0.0897
     24 C         145.4926  141.9298  163.0189 C.3     1  UNL1        0.0897
@<TRIPOS>BOND
     1    18    19    1
     2    19    12    1
     3    12    13   ar
     4    13    14   ar
     5    14    15   ar
     6    15    16   ar
     7    16    17   ar
     8    17    11    1
     9    11     1    1
    10     1     2    2
    11     2    20    1
    12    20    21    1
    13    21    22    1
    14    22    23    1
    15    22    24    1
    16     2     3    1
    17     3     4    1
    18     4     5   ar
    19     5     6   ar
    20     6     7    1
    21     6     8   ar
    22     8     9   ar
    23     9    10   ar
    24    17    12   ar
    25    10     1    1
    26    10     4   ar
@<TRIPOS>MOLECULE
*****
 24 26 0 0 0
SMALL
GASTEIGER

@<TRIPOS>ATOM
      1 C         140.0847  139.1166  165.7000 C.2     1  UNL1       -0.0238
      2 C         141.2427  138.2835  165.2364 C.2     1  UNL1       -0.0420
      3 C         142.4700  138.7522  165.9601 C.3     1  UNL1        0.0480
      4 C         142.0707  139.8750  166.8711 C.ar    1  UNL1       -0.0176
      5 C         142.8590  140.7214  167.8261 C.ar    1  UNL1        0.0074
      6 C         142.1730  141.7930  168.6204 C.ar    1  UNL1        0.0574
      7 CL        142.9613  142.6394  169.5756 Cl      1  UNL1       -0.0823
      8 C         140.6988  142.0182  168.4597 C.ar    1  UNL1        0.0114
      9 C         139.9105  141.1719  167.5046 C.ar    1  UNL1        0.0002
     10 C         140.5964  140.1002  166.7103 C.ar    1  UNL1       -0.0078
     11 C         138.6643  138.9887  165.2350 C.3     1  UNL1        0.0763
     12 C         137.9086  140.8656  163.6054 C.ar    1  UNL1        0.2393
     13 N         137.5283  141.3117  162.2247 N.ar    1  UNL1       -0.2075
     14 C         137.5233  140.3272  161.0930 C.ar    1  UNL1        0.1227
     15 C         137.8987  138.8964  161.3421 C.ar    1  UNL1        0.1193
     16 N         138.2791  138.4503  162.7227 N.ar    1  UNL1       -0.2415
     17 C         138.2840  139.4348  163.8545 C.ar    1  UNL1        0.1163
     18 C         138.6820  143.1324  164.6122 C.3     1  UNL1        0.2543
     19 O         137.9135  141.8502  164.7369 O.3     1  UNL1       -0.4553
     20 C         141.1836  137.1761  164.2263 C.3     1  UNL1        0.0394
     21 C         141.4936  137.4574  162.7860 C.3     1  UNL1        0.0765
     22 N         142.2615  138.6902  162.4109 N.3     1  UNL1       -0.2700
     23 C         143.7612  138.6759  162.4349 C.3     1  UNL1        0.0897
     24 C         141.5296  139.9372  162.0120 C.3     1  UNL1        0.0897
@<TRIPOS>BOND
     1    18    19    1
     2    19    12    1
     3    12    13   ar
     4    13    14   ar
     5    14    15   ar
     6    15    16   ar
     7    16    17   ar
     8    17    11    1
     9    11     1    1
    10     1     2    2
    11     2    20    1
    12    20    21    1
    13    21    22    1
    14    22    23    1
    15    22    24    1
    16     2     3    1
    17     3     4    1
    18     4     5   ar
    19     5     6   ar
    20     6     7    1
    21     6     8   ar
    22     8     9   ar
    23     9    10   ar
    24    17    12   ar
    25    10     1    1
    26    10     4   ar
@<TRIPOS>MOLECULE
*****
 24 26 0 0 0
SMALL
GASTEIGER

@<TRIPOS>ATOM
      1 C         139.9347  140.5888  165.1606 C.2     1  UNL1       -0.0238
      2 C         139.1770  139.3032  165.3126 C.2     1  UNL1       -0.0420
      3 C         138.9048  139.0956  166.7730 C.3     1  UNL1        0.0480
      4 C         139.4942  140.2529  167.5235 C.ar    1  UNL1       -0.0176
      5 C         139.5335  140.5856  168.9856 C.ar    1  UNL1        0.0074
      6 C         140.2094  141.8412  169.4511 C.ar    1  UNL1        0.0574
      7 CL        140.2488  142.1740  170.9132 Cl      1  UNL1       -0.0823
      8 C         140.8460  142.7640  168.4545 C.ar    1  UNL1        0.0114
      9 C         140.8066  142.4313  166.9924 C.ar    1  UNL1        0.0002
     10 C         140.1308  141.1758  166.5270 C.ar    1  UNL1       -0.0078
     11 C         140.4125  141.1831  163.8689 C.3     1  UNL1        0.0763
     12 C         138.5333  142.6677  162.8616 C.ar    1  UNL1        0.2393
     13 N         138.0343  144.0132  162.4251 N.ar    1  UNL1       -0.2075
     14 C         138.9155  145.2196  162.5592 C.ar    1  UNL1        0.1227
     15 C         140.2957  145.0806  163.1299 C.ar    1  UNL1        0.1193
     16 N         140.7947  143.7350  163.5664 N.ar    1  UNL1       -0.2415
     17 C         139.9135  142.5285  163.4323 C.ar    1  UNL1        0.1163
     18 C         137.6574  140.6663  161.4554 C.3     1  UNL1        0.2543
     19 O         137.6521  141.4613  162.7274 O.3     1  UNL1       -0.4553
     20 C         138.7640  138.3862  164.1997 C.3     1  UNL1        0.0394
     21 C         139.7465  137.4044  163.6333 C.3     1  UNL1        0.0765
     22 N         140.7823  137.8624  162.6498 N.3     1  UNL1       -0.2700
     23 C         142.2164  137.9833  163.0726 C.3     1  UNL1        0.0897
     24 C         140.3840  138.1996  161.2435 C.3     1  UNL1        0.0897
@<TRIPOS>BOND
     1    18    19    1
     2    19    12    1
     3    12    13   ar
     4    13    14   ar
     5    14    15   ar
     6    15    16   ar
     7    16    17   ar
     8    17    11    1
     9    11     1    1
    10     1     2    2
    11     2    20    1
    12    20    21    1
    13    21    22    1
    14    22    23    1
    15    22    24    1
    16     2     3    1
    17     3     4    1
    18     4     5   ar
    19     5     6   ar
    20     6     7    1
    21     6     8   ar
    22     8     9   ar
    23     9    10   ar
    24    17    12   ar
    25    10     1    1
    26    10     4   ar
@<TRIPOS>MOLECULE
*****
 24 26 0 0 0
SMALL
GASTEIGER

@<TRIPOS>ATOM
      1 C         139.8917  142.4216  165.4322 C.2     1  UNL1       -0.0238
      2 C         139.2375  141.2929  164.6919 C.2     1  UNL1       -0.0420
      3 C         139.0137  140.1707  165.6617 C.3     1  UNL1        0.0480
      4 C         139.5296  140.6058  167.0013 C.ar    1  UNL1       -0.0176
      5 C         139.5753  139.9150  168.3320 C.ar    1  UNL1        0.0074
      6 C         140.1637  140.6154  169.5207 C.ar    1  UNL1        0.0574
      7 CL        140.2095  139.9245  170.8515 Cl      1  UNL1       -0.0823
      8 C         140.7064  142.0066  169.3789 C.ar    1  UNL1        0.0114
      9 C         140.6607  142.6974  168.0482 C.ar    1  UNL1        0.0002
     10 C         140.0723  141.9970  166.8595 C.ar    1  UNL1       -0.0078
     11 C         140.2947  143.7431  164.8478 C.3     1  UNL1        0.0763
     12 C         141.5857  144.3527  162.6772 C.ar    1  UNL1        0.2393
     13 N         142.8781  144.4779  161.9262 N.ar    1  UNL1       -0.2075
     14 C         144.1719  144.1185  162.5947 C.ar    1  UNL1        0.1227
     15 C         144.1733  143.6340  164.0143 C.ar    1  UNL1        0.1193
     16 N         142.8809  143.5089  164.7653 N.ar    1  UNL1       -0.2415
     17 C         141.5870  143.8682  164.0968 C.ar    1  UNL1        0.1163
     18 C         139.9056  146.1525  161.8477 C.3     1  UNL1        0.2543
     19 O         140.2919  144.7121  162.0086 O.3     1  UNL1       -0.4553
     20 C         138.8714  141.2874  163.2373 C.3     1  UNL1        0.0394
     21 C         137.9074  140.2661  162.7104 C.3     1  UNL1        0.0765
     22 N         138.4195  139.0437  162.0079 N.3     1  UNL1       -0.2700
     23 C         138.6470  139.0706  160.5255 C.3     1  UNL1        0.0897
     24 C         138.7042  137.7945  162.7879 C.3     1  UNL1        0.0897
@<TRIPOS>BOND
     1    18    19    1
     2    19    12    1
     3    12    13   ar
     4    13    14   ar
     5    14    15   ar
     6    15    16   ar
     7    16    17   ar
     8    17    11    1
     9    11     1    1
    10     1     2    2
    11     2    20    1
    12    20    21    1
    13    21    22    1
    14    22    23    1
    15    22    24    1
    16     2     3    1
    17     3     4    1
    18     4     5   ar
    19     5     6   ar
    20     6     7    1
    21     6     8   ar
    22     8     9   ar
    23     9    10   ar
    24    17    12   ar
    25    10     1    1
    26    10     4   ar
@<TRIPOS>MOLECULE
*****
 24 26 0 0 0
SMALL
GASTEIGER

@<TRIPOS>ATOM
      1 C         140.0889  140.7344  165.5607 C.2     1  UNL1       -0.0238
      2 C         139.1354  139.5807  165.6597 C.2     1  UNL1       -0.0420
      3 C         138.8407  139.3462  167.1116 C.3     1  UNL1        0.0480
      4 C         139.6120  140.3551  167.9100 C.ar    1  UNL1       -0.0176
      5 C         139.7116  140.6033  169.3859 C.ar    1  UNL1        0.0074
      6 C         140.5826  141.7095  169.9033 C.ar    1  UNL1        0.0574
      7 CL        140.6822  141.9578  171.3793 Cl      1  UNL1       -0.0823
      8 C         141.3540  142.5674  168.9447 C.ar    1  UNL1        0.0114
      9 C         141.2545  142.3192  167.4688 C.ar    1  UNL1        0.0002
     10 C         140.3835  141.2130  166.9514 C.ar    1  UNL1       -0.0078
     11 C         140.6494  141.3087  164.2934 C.3     1  UNL1        0.0763
     12 C         140.9383  143.8416  163.7928 C.ar    1  UNL1        0.2393
     13 N         140.3936  145.1283  163.2472 N.ar    1  UNL1       -0.2075
     14 C         139.0155  145.1688  162.6566 C.ar    1  UNL1        0.1227
     15 C         138.1819  143.9226  162.6115 C.ar    1  UNL1        0.1193
     16 N         138.7266  142.6359  163.1571 N.ar    1  UNL1       -0.2415
     17 C         140.1048  142.5954  163.7478 C.ar    1  UNL1        0.1163
     18 C         143.3653  144.7620  163.9068 C.3     1  UNL1        0.2543
     19 O         142.3165  143.8012  164.3835 O.3     1  UNL1       -0.4553
     20 C         138.5751  138.7987  164.5088 C.3     1  UNL1        0.0394
     21 C         139.3458  137.6442  163.9404 C.3     1  UNL1        0.0765
     22 N         140.1450  137.8221  162.6835 N.3     1  UNL1       -0.2700
     23 C         141.6427  137.7529  162.7310 C.3     1  UNL1        0.0897
     24 C         139.4466  138.0692  161.3793 C.3     1  UNL1        0.0897
@<TRIPOS>BOND
     1    18    19    1
     2    19    12    1
     3    12    13   ar
     4    13    14   ar
     5    14    15   ar
     6    15    16   ar
     7    16    17   ar
     8    17    11    1
     9    11     1    1
    10     1     2    2
    11     2    20    1
    12    20    21    1
    13    21    22    1
    14    22    23    1
    15    22    24    1
    16     2     3    1
    17     3     4    1
    18     4     5   ar
    19     5     6   ar
    20     6     7    1
    21     6     8   ar
    22     8     9   ar
    23     9    10   ar
    24    17    12   ar
    25    10     1    1
    26    10     4   ar
