@<TRIPOS>MOLECULE
*****
 37 41 0 0 0
SMALL
GASTEIGER

@<TRIPOS>ATOM
      1 C         145.6221  141.6625  163.4876 C.3     1  UNL1        0.0553
      2 C         144.7994  141.5563  162.2379 C.ar    1  UNL1        0.0935
      3 N         144.7729  140.3891  161.2962 N.ar    1  UNL1       -0.1727
      4 N         143.8157  140.7101  160.1867 N.ar    1  UNL1       -0.2558
      5 C         143.2506  142.0757  160.4427 C.ar    1  UNL1        0.0704
      6 C         142.2528  142.7925  159.5823 C.3     1  UNL1        0.0531
      7 C         143.8585  142.5988  161.7104 C.ar    1  UNL1        0.0792
      8 C         143.4822  139.8215  159.0252 C.3     1  UNL1        0.1083
      9 C         142.7367  138.5397  159.2514 C.3     1  UNL1        0.0459
     10 C         142.4032  137.6510  158.0899 C.3     1  UNL1        0.0955
     11 N         142.8153  138.0442  156.7022 N.am    1  UNL1       -0.2775
     12 C         142.4818  137.1555  155.5407 C.2     1  UNL1        0.2525
     13 O         142.8938  137.5487  154.1530 O.2     1  UNL1       -0.2723
     14 C         143.5608  139.3260  156.4761 C.3     1  UNL1        0.0955
     15 C         143.8943  140.2146  157.6376 C.3     1  UNL1        0.0459
     16 C         141.7362  135.8737  155.7669 C.3     1  UNL1        0.1869
     17 C         142.4907  134.5985  156.0007 C.3     1  UNL1        0.0417
     18 O         140.2362  135.8671  155.7593 O.3     1  UNL1       -0.3758
     19 H         139.9161  134.9656  155.9195 H       1  UNL1        0.2110
     20 N         143.5753  143.9304  162.3401 N.pl3   1  UNL1       -0.2806
     21 H         144.2191  144.6687  162.2410 H       1  UNL1        0.1551
     22 C         142.3114  144.1374  163.1209 C.ar    1  UNL1        0.2208
     23 N         141.3602  145.2301  162.7322 N.ar    1  UNL1       -0.2111
     24 C         140.0962  145.4370  163.5129 C.ar    1  UNL1        0.1147
     25 C         139.7834  144.5512  164.6823 C.ar    1  UNL1        0.0946
     26 CL        138.5195  144.7581  165.4631 Cl      1  UNL1       -0.0790
     27 C         140.7347  143.4584  165.0710 C.ar    1  UNL1        0.0992
     28 N         141.9986  143.2515  164.2903 N.ar    1  UNL1       -0.2126
     29 C         140.4219  142.5725  166.2404 C.ar    1  UNL1        0.0572
     30 C         140.8709  142.7888  167.6552 C.ar    1  UNL1        0.1235
     31 N         140.3317  141.6648  168.4895 N.ar    1  UNL1       -0.1634
     32 N         139.5495  140.7539  167.5903 N.ar    1  UNL1       -0.2281
     33 C         138.7938  139.4862  167.8576 C.ar    1  UNL1        0.1004
     34 C         138.0938  138.7794  166.7349 C.ar    1  UNL1        0.0207
     35 C         138.1495  139.3404  165.3449 C.ar    1  UNL1        0.0031
     36 C         138.9053  140.6082  165.0776 C.ar    1  UNL1        0.0193
     37 C         139.6053  141.3150  166.2002 C.ar    1  UNL1        0.0858
@<TRIPOS>BOND
     1     1     2    1
     2     2     3   ar
     3     3     4   ar
     4     4     8    1
     5     8     9    1
     6     9    10    1
     7    10    11    1
     8    11    12   am
     9    12    13    2
    10    12    16    1
    11    16    17    1
    12    16    18    1
    13    11    14    1
    14    14    15    1
    15     4     5   ar
    16     5     6    1
    17     5     7   ar
    18     7    20    1
    19    20    22    1
    20    22    23   ar
    21    23    24   ar
    22    24    25   ar
    23    25    26    1
    24    25    27   ar
    25    27    29    1
    26    29    30   ar
    27    30    31   ar
    28    31    32   ar
    29    32    33   ar
    30    33    34   ar
    31    34    35   ar
    32    35    36   ar
    33    36    37   ar
    34    27    28   ar
    35     7     2   ar
    36    28    22   ar
    37    15     8    1
    38    37    29   ar
    39    37    32   ar
    40    18    19    1
    41    20    21    1
@<TRIPOS>MOLECULE
*****
 37 41 0 0 0
SMALL
GASTEIGER

@<TRIPOS>ATOM
      1 C         138.5023  137.6486  162.5602 C.3     1  UNL1        0.0553
      2 C         138.6846  138.8115  163.4900 C.ar    1  UNL1        0.0935
      3 N         139.4640  138.8020  164.7715 N.ar    1  UNL1       -0.1727
      4 N         139.3806  140.1727  165.3751 N.ar    1  UNL1       -0.2558
      5 C         138.5496  141.0294  164.4665 C.ar    1  UNL1        0.0704
      6 C         138.2086  142.4737  164.6846 C.3     1  UNL1        0.0531
      7 C         138.1194  140.1882  163.3014 C.ar    1  UNL1        0.0792
      8 C         140.0165  140.6100  166.6613 C.3     1  UNL1        0.1083
      9 C         141.1448  141.5981  166.6421 C.3     1  UNL1        0.0459
     10 C         141.7808  142.0354  167.9284 C.3     1  UNL1        0.0955
     11 N         141.2882  141.4845  169.2338 N.am    1  UNL1       -0.2775
     12 C         141.9242  141.9219  170.5201 C.2     1  UNL1        0.2525
     13 O         141.4317  141.3710  171.8255 O.2     1  UNL1       -0.2723
     14 C         140.1599  140.4964  169.2529 C.3     1  UNL1        0.0955
     15 C         139.5240  140.0592  167.9666 C.3     1  UNL1        0.0459
     16 C         143.0526  142.9100  170.5009 C.3     1  UNL1        0.1869
     17 C         144.3905  142.5100  169.9533 C.3     1  UNL1        0.0417
     18 O         142.8430  144.2981  171.0293 O.3     1  UNL1       -0.3758
     19 H         143.6660  144.8043  170.9437 H       1  UNL1        0.2110
     20 N         137.2728  140.6435  162.1500 N.pl3   1  UNL1       -0.2806
     21 H         136.2922  140.5734  162.2021 H       1  UNL1        0.1551
     22 C         137.9202  141.2055  160.9191 C.ar    1  UNL1        0.2208
     23 N         138.6894  142.4910  160.9967 N.ar    1  UNL1       -0.2111
     24 C         139.3367  143.0530  159.7658 C.ar    1  UNL1        0.1147
     25 C         139.2150  142.3296  158.4574 C.ar    1  UNL1        0.0946
     26 CL        139.8623  142.8917  157.2266 Cl      1  UNL1       -0.0790
     27 C         138.4457  141.0441  158.3799 C.ar    1  UNL1        0.0992
     28 N         137.7984  140.4822  159.6107 N.ar    1  UNL1       -0.2126
     29 C         138.3239  140.3207  157.0715 C.ar    1  UNL1        0.0572
     30 C         139.2835  139.2999  156.5358 C.ar    1  UNL1        0.1235
     31 N         138.7738  138.8395  155.2023 N.ar    1  UNL1       -0.1634
     32 N         137.4992  139.5758  154.9139 N.ar    1  UNL1       -0.2281
     33 C         136.5558  139.5309  153.7486 C.ar    1  UNL1        0.1004
     34 C         135.3344  140.4015  153.7385 C.ar    1  UNL1        0.0207
     35 C         135.0564  141.3170  154.8938 C.ar    1  UNL1        0.0031
     36 C         135.9997  141.3619  156.0591 C.ar    1  UNL1        0.0193
     37 C         137.2211  140.4913  156.0691 C.ar    1  UNL1        0.0858
@<TRIPOS>BOND
     1     1     2    1
     2     2     3   ar
     3     3     4   ar
     4     4     8    1
     5     8     9    1
     6     9    10    1
     7    10    11    1
     8    11    12   am
     9    12    13    2
    10    12    16    1
    11    16    17    1
    12    16    18    1
    13    11    14    1
    14    14    15    1
    15     4     5   ar
    16     5     6    1
    17     5     7   ar
    18     7    20    1
    19    20    22    1
    20    22    23   ar
    21    23    24   ar
    22    24    25   ar
    23    25    26    1
    24    25    27   ar
    25    27    29    1
    26    29    30   ar
    27    30    31   ar
    28    31    32   ar
    29    32    33   ar
    30    33    34   ar
    31    34    35   ar
    32    35    36   ar
    33    36    37   ar
    34    27    28   ar
    35     7     2   ar
    36    28    22   ar
    37    15     8    1
    38    37    29   ar
    39    37    32   ar
    40    18    19    1
    41    20    21    1
@<TRIPOS>MOLECULE
*****
 37 41 0 0 0
SMALL
GASTEIGER

@<TRIPOS>ATOM
      1 C         140.8715  145.4748  162.8794 C.3     1  UNL1        0.0553
      2 C         140.8522  144.7500  161.5664 C.ar    1  UNL1        0.0935
      3 N         139.6766  144.6305  160.6424 N.ar    1  UNL1       -0.1727
      4 N         140.1030  143.8240  159.4516 N.ar    1  UNL1       -0.2558
      5 C         141.5421  143.4450  159.6396 C.ar    1  UNL1        0.0704
      6 C         142.3724  142.6359  158.6879 C.3     1  UNL1        0.0531
      7 C         142.0052  144.0173  160.9466 C.ar    1  UNL1        0.0792
      8 C         139.2416  143.4603  158.2787 C.3     1  UNL1        0.1083
      9 C         138.1983  142.3914  158.4173 C.3     1  UNL1        0.0459
     10 C         137.3368  142.0277  157.2444 C.3     1  UNL1        0.0955
     11 N         137.5187  142.7329  155.9330 N.am    1  UNL1       -0.2775
     12 C         136.6572  142.3692  154.7601 C.2     1  UNL1        0.2525
     13 O         136.8389  143.0743  153.4487 O.2     1  UNL1       -0.2723
     14 C         138.5619  143.8018  155.7945 C.3     1  UNL1        0.0955
     15 C         139.4233  144.1654  156.9674 C.3     1  UNL1        0.0459
     16 C         135.6139  141.3003  154.8987 C.3     1  UNL1        0.1869
     17 C         135.8857  139.9164  154.3879 C.3     1  UNL1        0.0417
     18 O         134.2989  141.6154  155.5480 O.3     1  UNL1       -0.3758
     19 H         133.7439  140.8199  155.5569 H       1  UNL1        0.2110
     20 N         143.3798  143.8810  161.5313 N.pl3   1  UNL1       -0.2806
     21 H         144.0490  144.5883  161.3858 H       1  UNL1        0.1551
     22 C         143.7349  142.6670  162.3377 C.ar    1  UNL1        0.2208
     23 N         145.0803  142.5695  162.9935 N.ar    1  UNL1       -0.2111
     24 C         145.4354  141.3555  163.7999 C.ar    1  UNL1        0.1147
     25 C         144.4450  140.2391  163.9503 C.ar    1  UNL1        0.0946
     26 CL        144.8001  139.0251  164.7567 Cl      1  UNL1       -0.0790
     27 C         143.0995  140.3366  163.2944 C.ar    1  UNL1        0.0992
     28 N         142.7445  141.5505  162.4881 N.ar    1  UNL1       -0.2126
     29 C         142.1091  139.2201  163.4449 C.ar    1  UNL1        0.0572
     30 C         142.1150  137.9277  162.6836 C.ar    1  UNL1        0.1235
     31 N         140.9485  137.1089  163.1513 N.ar    1  UNL1       -0.1634
     32 N         140.2216  137.8953  164.2016 N.ar    1  UNL1       -0.2281
     33 C         138.9992  137.5918  165.0163 C.ar    1  UNL1        0.1004
     34 C         138.4941  138.5932  166.0123 C.ar    1  UNL1        0.0207
     35 C         139.2114  139.8980  166.1938 C.ar    1  UNL1        0.0031
     36 C         140.4338  140.2015  165.3791 C.ar    1  UNL1        0.0193
     37 C         140.9389  139.2001  164.3831 C.ar    1  UNL1        0.0858
@<TRIPOS>BOND
     1     1     2    1
     2     2     3   ar
     3     3     4   ar
     4     4     8    1
     5     8     9    1
     6     9    10    1
     7    10    11    1
     8    11    12   am
     9    12    13    2
    10    12    16    1
    11    16    17    1
    12    16    18    1
    13    11    14    1
    14    14    15    1
    15     4     5   ar
    16     5     6    1
    17     5     7   ar
    18     7    20    1
    19    20    22    1
    20    22    23   ar
    21    23    24   ar
    22    24    25   ar
    23    25    26    1
    24    25    27   ar
    25    27    29    1
    26    29    30   ar
    27    30    31   ar
    28    31    32   ar
    29    32    33   ar
    30    33    34   ar
    31    34    35   ar
    32    35    36   ar
    33    36    37   ar
    34    27    28   ar
    35     7     2   ar
    36    28    22   ar
    37    15     8    1
    38    37    29   ar
    39    37    32   ar
    40    18    19    1
    41    20    21    1
@<TRIPOS>MOLECULE
*****
 37 41 0 0 0
SMALL
GASTEIGER

@<TRIPOS>ATOM
      1 C         144.4628  142.6153  161.1570 C.3     1  UNL1        0.0553
      2 C         143.4541  142.8557  162.2408 C.ar    1  UNL1        0.0935
      3 N         143.3219  142.0708  163.5122 N.ar    1  UNL1       -0.1727
      4 N         142.1865  142.6534  164.3008 N.ar    1  UNL1       -0.2558
      5 C         141.6170  143.7982  163.5167 C.ar    1  UNL1        0.0704
      6 C         140.4662  144.6657  163.9326 C.3     1  UNL1        0.0531
      7 C         142.4004  143.9234  162.2436 C.ar    1  UNL1        0.0792
      8 C         141.7053  142.1749  165.6385 C.3     1  UNL1        0.1083
      9 C         142.4728  142.5219  166.8797 C.3     1  UNL1        0.0459
     10 C         141.9915  142.0435  168.2174 C.3     1  UNL1        0.0955
     11 N         140.7427  141.2181  168.3139 N.am    1  UNL1       -0.2775
     12 C         140.2614  140.7397  169.6517 C.2     1  UNL1        0.2525
     13 O         139.0126  139.9144  169.7482 O.2     1  UNL1       -0.2723
     14 C         139.9751  140.8712  167.0727 C.3     1  UNL1        0.0955
     15 C         140.4565  141.3497  165.7350 C.3     1  UNL1        0.0459
     16 C         141.0289  141.0867  170.8928 C.3     1  UNL1        0.1869
     17 C         142.3304  140.4011  171.1860 C.3     1  UNL1        0.0417
     18 O         140.4949  142.1192  171.8408 O.3     1  UNL1       -0.3758
     19 H         141.1081  142.2226  172.5853 H       1  UNL1        0.2110
     20 N         142.1705  144.9379  161.1629 N.pl3   1  UNL1       -0.2806
     21 H         142.5941  145.8246  161.2220 H       1  UNL1        0.1551
     22 C         141.2951  144.6014  159.9922 C.ar    1  UNL1        0.2208
     23 N         140.4518  143.3613  160.0182 N.ar    1  UNL1       -0.2111
     24 C         139.5765  143.0248  158.8475 C.ar    1  UNL1        0.1147
     25 C         139.5445  143.9286  157.6507 C.ar    1  UNL1        0.0946
     26 CL        138.6692  143.5921  156.4800 Cl      1  UNL1       -0.0790
     27 C         140.3879  145.1688  157.6247 C.ar    1  UNL1        0.0992
     28 N         141.2632  145.5052  158.7954 N.ar    1  UNL1       -0.2126
     29 C         140.3559  146.0726  156.4280 C.ar    1  UNL1        0.0572
     30 C         141.0140  145.8088  155.1061 C.ar    1  UNL1        0.1235
     31 N         140.7250  146.9720  154.2042 N.ar    1  UNL1       -0.1634
     32 N         139.8884  147.9547  154.9686 N.ar    1  UNL1       -0.2281
     33 C         139.3049  149.2838  154.5908 C.ar    1  UNL1        0.1004
     34 C         138.4932  150.0571  155.5874 C.ar    1  UNL1        0.0207
     35 C         138.2651  149.5013  156.9618 C.ar    1  UNL1        0.0031
     36 C         138.8487  148.1721  157.3396 C.ar    1  UNL1        0.0193
     37 C         139.6603  147.3988  156.3430 C.ar    1  UNL1        0.0858
@<TRIPOS>BOND
     1     1     2    1
     2     2     3   ar
     3     3     4   ar
     4     4     8    1
     5     8     9    1
     6     9    10    1
     7    10    11    1
     8    11    12   am
     9    12    13    2
    10    12    16    1
    11    16    17    1
    12    16    18    1
    13    11    14    1
    14    14    15    1
    15     4     5   ar
    16     5     6    1
    17     5     7   ar
    18     7    20    1
    19    20    22    1
    20    22    23   ar
    21    23    24   ar
    22    24    25   ar
    23    25    26    1
    24    25    27   ar
    25    27    29    1
    26    29    30   ar
    27    30    31   ar
    28    31    32   ar
    29    32    33   ar
    30    33    34   ar
    31    34    35   ar
    32    35    36   ar
    33    36    37   ar
    34    27    28   ar
    35     7     2   ar
    36    28    22   ar
    37    15     8    1
    38    37    29   ar
    39    37    32   ar
    40    18    19    1
    41    20    21    1
@<TRIPOS>MOLECULE
*****
 37 41 0 0 0
SMALL
GASTEIGER

@<TRIPOS>ATOM
      1 C         144.5958  142.7791  160.6908 C.3     1  UNL1        0.0553
      2 C         143.6852  142.9388  161.8719 C.ar    1  UNL1        0.0935
      3 N         143.7038  142.1051  163.1187 N.ar    1  UNL1       -0.1727
      4 N         142.6260  142.6113  164.0311 N.ar    1  UNL1       -0.2558
      5 C         141.9413  143.7580  163.3481 C.ar    1  UNL1        0.0704
      6 C         140.8022  144.5611  163.9022 C.3     1  UNL1        0.0531
      7 C         142.5959  143.9604  162.0137 C.ar    1  UNL1        0.0792
      8 C         142.2917  142.0666  165.3880 C.3     1  UNL1        0.1083
      9 C         143.1815  142.3682  166.5573 C.3     1  UNL1        0.0459
     10 C         142.8471  141.8235  167.9144 C.3     1  UNL1        0.0955
     11 N         141.6230  140.9771  168.1020 N.am    1  UNL1       -0.2775
     12 C         141.2887  140.4324  169.4591 C.2     1  UNL1        0.2525
     13 O         140.0645  139.5860  169.6468 O.2     1  UNL1       -0.2723
     14 C         140.7332  140.6755  166.9327 C.3     1  UNL1        0.0955
     15 C         141.0676  141.2203  165.5757 C.3     1  UNL1        0.0459
     16 C         142.1785  140.7340  170.6284 C.3     1  UNL1        0.1869
     17 C         141.9827  141.9969  171.4137 C.3     1  UNL1        0.0417
     18 O         143.2641  139.7727  171.0124 O.3     1  UNL1       -0.3758
     19 H         143.7424  140.1162  171.7832 H       1  UNL1        0.2110
     20 N         142.2262  145.0015  160.9991 N.pl3   1  UNL1       -0.2806
     21 H         142.5739  145.9185  161.0856 H       1  UNL1        0.1551
     22 C         141.3267  144.6456  159.8527 C.ar    1  UNL1        0.2208
     23 N         140.5924  143.3376  159.8536 N.ar    1  UNL1       -0.2111
     24 C         139.6930  142.9817  158.7072 C.ar    1  UNL1        0.1147
     25 C         139.5278  143.9338  157.5599 C.ar    1  UNL1        0.0946
     26 CL        138.6284  143.5778  156.4135 Cl      1  UNL1       -0.0790
     27 C         140.2622  145.2418  157.5590 C.ar    1  UNL1        0.0992
     28 N         141.1616  145.5976  158.7054 N.ar    1  UNL1       -0.2126
     29 C         140.0970  146.1938  156.4116 C.ar    1  UNL1        0.0572
     30 C         139.1229  147.3325  156.3440 C.ar    1  UNL1        0.1235
     31 N         139.3009  148.0167  155.0211 N.ar    1  UNL1       -0.1634
     32 N         140.3850  147.3009  154.2711 N.ar    1  UNL1       -0.2281
     33 C         140.9876  147.5295  152.9167 C.ar    1  UNL1        0.1004
     34 C         142.0824  146.6314  152.4217 C.ar    1  UNL1        0.0207
     35 C         142.5744  145.5048  153.2811 C.ar    1  UNL1        0.0031
     36 C         141.9718  145.2763  154.6355 C.ar    1  UNL1        0.0193
     37 C         140.8770  146.1743  155.1305 C.ar    1  UNL1        0.0858
@<TRIPOS>BOND
     1     1     2    1
     2     2     3   ar
     3     3     4   ar
     4     4     8    1
     5     8     9    1
     6     9    10    1
     7    10    11    1
     8    11    12   am
     9    12    13    2
    10    12    16    1
    11    16    17    1
    12    16    18    1
    13    11    14    1
    14    14    15    1
    15     4     5   ar
    16     5     6    1
    17     5     7   ar
    18     7    20    1
    19    20    22    1
    20    22    23   ar
    21    23    24   ar
    22    24    25   ar
    23    25    26    1
    24    25    27   ar
    25    27    29    1
    26    29    30   ar
    27    30    31   ar
    28    31    32   ar
    29    32    33   ar
    30    33    34   ar
    31    34    35   ar
    32    35    36   ar
    33    36    37   ar
    34    27    28   ar
    35     7     2   ar
    36    28    22   ar
    37    15     8    1
    38    37    29   ar
    39    37    32   ar
    40    18    19    1
    41    20    21    1
@<TRIPOS>MOLECULE
*****
 37 41 0 0 0
SMALL
GASTEIGER

@<TRIPOS>ATOM
      1 C         144.4593  142.7402  162.9724 C.3     1  UNL1        0.0553
      2 C         143.5636  142.6797  161.7707 C.ar    1  UNL1        0.0935
      3 N         143.3179  143.7941  160.7972 N.ar    1  UNL1       -0.1727
      4 N         142.3588  143.2973  159.7563 N.ar    1  UNL1       -0.2558
      5 C         142.0118  141.8758  160.0865 C.ar    1  UNL1        0.0704
      6 C         141.0833  140.9914  159.3084 C.3     1  UNL1        0.0531
      7 C         142.7564  141.4941  161.3315 C.ar    1  UNL1        0.0792
      8 C         141.8381  144.0838  158.5900 C.3     1  UNL1        0.1083
      9 C         140.5021  144.7600  158.6779 C.3     1  UNL1        0.0459
     10 C         139.9813  145.5465  157.5116 C.3     1  UNL1        0.0955
     11 N         140.7968  145.6569  156.2574 N.am    1  UNL1       -0.2775
     12 C         140.2761  146.4434  155.0911 C.2     1  UNL1        0.2525
     13 O         141.0915  146.5538  153.8369 O.2     1  UNL1       -0.2723
     14 C         142.1329  144.9807  156.1695 C.3     1  UNL1        0.0955
     15 C         142.6535  144.1942  157.3359 C.3     1  UNL1        0.0459
     16 C         138.9400  147.1196  155.1790 C.3     1  UNL1        0.1869
     17 C         138.8377  148.5087  155.7358 C.3     1  UNL1        0.0417
     18 O         137.7063  146.4067  154.7101 O.3     1  UNL1       -0.3758
     19 H         136.9341  146.9800  154.8360 H       1  UNL1        0.2110
     20 N         142.7032  140.1609  162.0169 N.pl3   1  UNL1       -0.2806
     21 H         143.2832  139.4266  161.7109 H       1  UNL1        0.1551
     22 C         141.7663  139.9465  163.1685 C.ar    1  UNL1        0.2208
     23 N         140.3418  139.5524  162.9131 N.ar    1  UNL1       -0.2111
     24 C         139.4049  139.3380  164.0647 C.ar    1  UNL1        0.1147
     25 C         139.8926  139.5177  165.4718 C.ar    1  UNL1        0.0946
     26 CL        138.9557  139.3032  166.6235 Cl      1  UNL1       -0.0790
     27 C         141.3173  139.9118  165.7273 C.ar    1  UNL1        0.0992
     28 N         142.2540  140.1262  164.5756 N.ar    1  UNL1       -0.2126
     29 C         141.8050  140.0914  167.1344 C.ar    1  UNL1        0.0572
     30 C         142.7336  139.1713  167.8698 C.ar    1  UNL1        0.1235
     31 N         142.9522  139.7340  169.2430 N.ar    1  UNL1       -0.1634
     32 N         142.1586  141.0019  169.3562 N.ar    1  UNL1       -0.2281
     33 C         141.9900  141.9837  170.4776 C.ar    1  UNL1        0.1004
     34 C         141.1124  143.1864  170.2957 C.ar    1  UNL1        0.0207
     35 C         140.4034  143.4073  168.9924 C.ar    1  UNL1        0.0031
     36 C         140.5719  142.4255  167.8711 C.ar    1  UNL1        0.0193
     37 C         141.4496  141.2228  168.0529 C.ar    1  UNL1        0.0858
@<TRIPOS>BOND
     1     1     2    1
     2     2     3   ar
     3     3     4   ar
     4     4     8    1
     5     8     9    1
     6     9    10    1
     7    10    11    1
     8    11    12   am
     9    12    13    2
    10    12    16    1
    11    16    17    1
    12    16    18    1
    13    11    14    1
    14    14    15    1
    15     4     5   ar
    16     5     6    1
    17     5     7   ar
    18     7    20    1
    19    20    22    1
    20    22    23   ar
    21    23    24   ar
    22    24    25   ar
    23    25    26    1
    24    25    27   ar
    25    27    29    1
    26    29    30   ar
    27    30    31   ar
    28    31    32   ar
    29    32    33   ar
    30    33    34   ar
    31    34    35   ar
    32    35    36   ar
    33    36    37   ar
    34    27    28   ar
    35     7     2   ar
    36    28    22   ar
    37    15     8    1
    38    37    29   ar
    39    37    32   ar
    40    18    19    1
    41    20    21    1
@<TRIPOS>MOLECULE
*****
 37 41 0 0 0
SMALL
GASTEIGER

@<TRIPOS>ATOM
      1 C         139.3537  143.8644  156.9153 C.3     1  UNL1        0.0553
      2 C         139.5027  142.4441  157.3742 C.ar    1  UNL1        0.0935
      3 N         140.2708  141.3657  156.6692 N.ar    1  UNL1       -0.1727
      4 N         140.1526  140.1079  157.4780 N.ar    1  UNL1       -0.2558
      5 C         139.3114  140.4089  158.6829 C.ar    1  UNL1        0.0704
      6 C         138.9375  139.4369  159.7623 C.3     1  UNL1        0.0531
      7 C         138.9097  141.8528  158.6188 C.ar    1  UNL1        0.0792
      8 C         140.7676  138.7819  157.1411 C.3     1  UNL1        0.1083
      9 C         140.0627  137.8441  156.2064 C.3     1  UNL1        0.0459
     10 C         140.6778  136.5181  155.8694 C.3     1  UNL1        0.0955
     11 N         141.9976  136.1300  156.4672 N.am    1  UNL1       -0.2775
     12 C         142.6126  134.8039  156.1303 C.2     1  UNL1        0.2525
     13 O         143.9325  134.4158  156.7280 O.2     1  UNL1       -0.2723
     14 C         142.7025  137.0678  157.4019 C.3     1  UNL1        0.0955
     15 C         142.0874  138.3938  157.7388 C.3     1  UNL1        0.0459
     16 C         141.9078  133.8661  155.1955 C.3     1  UNL1        0.1869
     17 C         142.1834  133.9277  153.7224 C.3     1  UNL1        0.0417
     18 O         140.9273  132.8667  155.7340 O.3     1  UNL1       -0.3758
     19 H         140.5649  132.3429  155.0025 H       1  UNL1        0.2110
     20 N         138.0636  142.5780  159.6228 N.pl3   1  UNL1       -0.2806
     21 H         137.1449  142.8452  159.3910 H       1  UNL1        0.1551
     22 C         138.6173  142.8962  160.9801 C.ar    1  UNL1        0.2208
     23 N         137.6869  143.1818  162.1215 N.ar    1  UNL1       -0.2111
     24 C         138.2406  143.4999  163.4788 C.ar    1  UNL1        0.1147
     25 C         139.7246  143.5325  163.6946 C.ar    1  UNL1        0.0946
     26 CL        140.2783  143.8507  165.0519 Cl      1  UNL1       -0.0790
     27 C         140.6550  143.2469  162.5531 C.ar    1  UNL1        0.0992
     28 N         140.1013  142.9288  161.1959 N.ar    1  UNL1       -0.2126
     29 C         142.1391  143.2795  162.7690 C.ar    1  UNL1        0.0572
     30 C         143.0322  144.4690  162.5756 C.ar    1  UNL1        0.1235
     31 N         144.4356  144.0529  162.9032 N.ar    1  UNL1       -0.1634
     32 N         144.4098  142.6064  163.2992 N.ar    1  UNL1       -0.2281
     33 C         145.4953  141.6627  163.7245 C.ar    1  UNL1        0.1004
     34 C         145.1615  140.2410  164.0669 C.ar    1  UNL1        0.0207
     35 C         143.7421  139.7630  163.9840 C.ar    1  UNL1        0.0031
     36 C         142.6566  140.7067  163.5586 C.ar    1  UNL1        0.0193
     37 C         142.9904  142.1284  163.2162 C.ar    1  UNL1        0.0858
@<TRIPOS>BOND
     1     1     2    1
     2     2     3   ar
     3     3     4   ar
     4     4     8    1
     5     8     9    1
     6     9    10    1
     7    10    11    1
     8    11    12   am
     9    12    13    2
    10    12    16    1
    11    16    17    1
    12    16    18    1
    13    11    14    1
    14    14    15    1
    15     4     5   ar
    16     5     6    1
    17     5     7   ar
    18     7    20    1
    19    20    22    1
    20    22    23   ar
    21    23    24   ar
    22    24    25   ar
    23    25    26    1
    24    25    27   ar
    25    27    29    1
    26    29    30   ar
    27    30    31   ar
    28    31    32   ar
    29    32    33   ar
    30    33    34   ar
    31    34    35   ar
    32    35    36   ar
    33    36    37   ar
    34    27    28   ar
    35     7     2   ar
    36    28    22   ar
    37    15     8    1
    38    37    29   ar
    39    37    32   ar
    40    18    19    1
    41    20    21    1
@<TRIPOS>MOLECULE
*****
 37 41 0 0 0
SMALL
GASTEIGER

@<TRIPOS>ATOM
      1 C         137.6462  142.8407  164.1057 C.3     1  UNL1        0.0553
      2 C         137.9769  142.3617  162.7233 C.ar    1  UNL1        0.0935
      3 N         138.0675  143.2148  161.4928 N.ar    1  UNL1       -0.1727
      4 N         138.4217  142.3259  160.3375 N.ar    1  UNL1       -0.2558
      5 C         138.5499  140.9235  160.8540 C.ar    1  UNL1        0.0704
      6 C         138.8928  139.7117  160.0392 C.3     1  UNL1        0.0531
      7 C         138.2750  140.9456  162.3285 C.ar    1  UNL1        0.0792
      8 C         138.6138  142.7627  158.9154 C.3     1  UNL1        0.1083
      9 C         137.6368  142.3347  157.8609 C.3     1  UNL1        0.0459
     10 C         137.8289  142.7715  156.4387 C.3     1  UNL1        0.0955
     11 N         138.9981  143.6363  156.0714 N.am    1  UNL1       -0.2775
     12 C         139.1903  144.0732  154.6492 C.2     1  UNL1        0.2525
     13 O         140.3595  144.9380  154.2817 O.2     1  UNL1       -0.2723
     14 C         139.9752  144.0644  157.1259 C.3     1  UNL1        0.0955
     15 C         139.7830  143.6275  158.5480 C.3     1  UNL1        0.0459
     16 C         138.2132  143.6451  153.5946 C.3     1  UNL1        0.1869
     17 C         138.5122  142.4531  152.7347 C.3     1  UNL1        0.0417
     18 O         136.9371  144.4092  153.4000 O.3     1  UNL1       -0.3758
     19 H         136.4234  144.0036  152.6841 H       1  UNL1        0.2110
     20 N         138.2948  139.7599  163.2470 N.pl3   1  UNL1       -0.2806
     21 H         137.4767  139.2295  163.3837 H       1  UNL1        0.1551
     22 C         139.5609  139.3823  163.9572 C.ar    1  UNL1        0.2208
     23 N         140.2583  138.0990  163.6157 N.ar    1  UNL1       -0.2111
     24 C         141.5244  137.7214  164.3259 C.ar    1  UNL1        0.1147
     25 C         142.0930  138.6271  165.3777 C.ar    1  UNL1        0.0946
     26 CL        143.3591  138.2495  166.0879 Cl      1  UNL1       -0.0790
     27 C         141.3956  139.9105  165.7192 C.ar    1  UNL1        0.0992
     28 N         140.1296  140.2880  165.0090 N.ar    1  UNL1       -0.2126
     29 C         141.9643  140.8162  166.7710 C.ar    1  UNL1        0.0572
     30 C         143.0094  141.8704  166.5555 C.ar    1  UNL1        0.1235
     31 N         143.2787  142.5325  167.8743 N.ar    1  UNL1       -0.1634
     32 N         142.4000  141.8875  168.9048 N.ar    1  UNL1       -0.2281
     33 C         142.2347  142.1290  170.3760 C.ar    1  UNL1        0.1004
     34 C         141.2570  141.3097  171.1652 C.ar    1  UNL1        0.0207
     35 C         140.4447  140.2490  170.4833 C.ar    1  UNL1        0.0031
     36 C         140.6100  140.0075  169.0122 C.ar    1  UNL1        0.0193
     37 C         141.5877  140.8268  168.2229 C.ar    1  UNL1        0.0858
@<TRIPOS>BOND
     1     1     2    1
     2     2     3   ar
     3     3     4   ar
     4     4     8    1
     5     8     9    1
     6     9    10    1
     7    10    11    1
     8    11    12   am
     9    12    13    2
    10    12    16    1
    11    16    17    1
    12    16    18    1
    13    11    14    1
    14    14    15    1
    15     4     5   ar
    16     5     6    1
    17     5     7   ar
    18     7    20    1
    19    20    22    1
    20    22    23   ar
    21    23    24   ar
    22    24    25   ar
    23    25    26    1
    24    25    27   ar
    25    27    29    1
    26    29    30   ar
    27    30    31   ar
    28    31    32   ar
    29    32    33   ar
    30    33    34   ar
    31    34    35   ar
    32    35    36   ar
    33    36    37   ar
    34    27    28   ar
    35     7     2   ar
    36    28    22   ar
    37    15     8    1
    38    37    29   ar
    39    37    32   ar
    40    18    19    1
    41    20    21    1
@<TRIPOS>MOLECULE
*****
 37 41 0 0 0
SMALL
GASTEIGER

@<TRIPOS>ATOM
      1 C         140.0291  144.6604  158.7708 C.3     1  UNL1        0.0553
      2 C         139.8827  143.1691  158.8386 C.ar    1  UNL1        0.0935
      3 N         140.5896  142.1732  157.9677 N.ar    1  UNL1       -0.1727
      4 N         140.1474  140.8004  158.3801 N.ar    1  UNL1       -0.2558
      5 C         139.1672  140.9479  159.5059 C.ar    1  UNL1        0.0704
      6 C         138.4726  139.8282  160.2225 C.3     1  UNL1        0.0531
      7 C         139.0036  142.4118  159.7893 C.ar    1  UNL1        0.0792
      8 C         140.6051  139.5073  157.7733 C.3     1  UNL1        0.1083
      9 C         142.0210  139.0498  157.9622 C.3     1  UNL1        0.0459
     10 C         142.4788  137.7566  157.3554 C.3     1  UNL1        0.0955
     11 N         141.5204  136.9210  156.5596 N.am    1  UNL1       -0.2775
     12 C         141.9781  135.6278  155.9527 C.2     1  UNL1        0.2525
     13 O         141.0198  134.7921  155.1569 O.2     1  UNL1       -0.2723
     14 C         140.1044  137.3784  156.3706 C.3     1  UNL1        0.0955
     15 C         139.6468  138.6716  156.9775 C.3     1  UNL1        0.0459
     16 C         143.3941  135.1703  156.1417 C.3     1  UNL1        0.1869
     17 C         143.7161  134.1367  157.1800 C.3     1  UNL1        0.0417
     18 O         144.4881  135.7464  155.2924 O.3     1  UNL1       -0.3758
     19 H         145.3357  135.3457  155.5413 H       1  UNL1        0.2110
     20 N         138.1166  143.0129  160.8390 N.pl3   1  UNL1       -0.2806
     21 H         137.2243  143.3499  160.5954 H       1  UNL1        0.1551
     22 C         138.5893  143.1007  162.2599 C.ar    1  UNL1        0.2208
     23 N         138.2227  144.2879  163.1003 N.ar    1  UNL1       -0.2111
     24 C         138.6953  144.3757  164.5211 C.ar    1  UNL1        0.1147
     25 C         139.5346  143.2763  165.1016 C.ar    1  UNL1        0.0946
     26 CL        140.0073  143.3641  166.5225 Cl      1  UNL1       -0.0790
     27 C         139.9013  142.0891  164.2612 C.ar    1  UNL1        0.0992
     28 N         139.4286  142.0014  162.8404 N.ar    1  UNL1       -0.2126
     29 C         140.7405  140.9897  164.8418 C.ar    1  UNL1        0.0572
     30 C         140.2852  139.9655  165.8386 C.ar    1  UNL1        0.1235
     31 N         141.4458  139.0644  166.1402 N.ar    1  UNL1       -0.1634
     32 N         142.6184  139.5316  165.3298 N.ar    1  UNL1       -0.2281
     33 C         144.0267  139.0273  165.2190 C.ar    1  UNL1        0.1004
     34 C         144.9991  139.7130  164.3056 C.ar    1  UNL1        0.0207
     35 C         144.5632  140.9029  163.5031 C.ar    1  UNL1        0.0031
     36 C         143.1549  141.4072  163.6139 C.ar    1  UNL1        0.0193
     37 C         142.1825  140.7216  164.5273 C.ar    1  UNL1        0.0858
@<TRIPOS>BOND
     1     1     2    1
     2     2     3   ar
     3     3     4   ar
     4     4     8    1
     5     8     9    1
     6     9    10    1
     7    10    11    1
     8    11    12   am
     9    12    13    2
    10    12    16    1
    11    16    17    1
    12    16    18    1
    13    11    14    1
    14    14    15    1
    15     4     5   ar
    16     5     6    1
    17     5     7   ar
    18     7    20    1
    19    20    22    1
    20    22    23   ar
    21    23    24   ar
    22    24    25   ar
    23    25    26    1
    24    25    27   ar
    25    27    29    1
    26    29    30   ar
    27    30    31   ar
    28    31    32   ar
    29    32    33   ar
    30    33    34   ar
    31    34    35   ar
    32    35    36   ar
    33    36    37   ar
    34    27    28   ar
    35     7     2   ar
    36    28    22   ar
    37    15     8    1
    38    37    29   ar
    39    37    32   ar
    40    18    19    1
    41    20    21    1
