@<TRIPOS>MOLECULE
*****
 36 41 0 0 0
SMALL
GASTEIGER

@<TRIPOS>ATOM
      1 C         137.9855  141.4853  156.6161 C.ar    1  UNL1        0.1725
      2 C         138.9322  142.4608  157.2502 C.ar    1  UNL1        0.0428
      3 C         139.0017  143.8727  156.7485 C.ar    1  UNL1        0.0340
      4 C         139.9484  144.8482  157.3826 C.ar    1  UNL1        0.0477
      5 C         140.0179  146.2602  156.8810 C.ar    1  UNL1        0.0365
      6 C         139.1405  146.6966  155.7453 C.ar    1  UNL1        0.1169
      7 N         138.1938  145.7211  155.1112 N.ar    1  UNL1       -0.2421
      8 C         138.1243  144.3092  155.6129 C.ar    1  UNL1        0.0858
      9 C         137.1776  143.3337  154.9788 C.ar    1  UNL1        0.0592
     10 C         137.1082  141.9217  155.4804 C.ar    1  UNL1        0.1735
     11 C         139.2099  148.1085  155.2436 C.ar    1  UNL1        0.1624
     12 C         139.9273  148.5718  154.0104 C.ar    1  UNL1        0.0418
     13 C         139.7349  150.0547  153.8918 C.ar    1  UNL1        0.0361
     14 C         138.8986  150.5079  155.0516 C.ar    1  UNL1        0.1234
     15 C         138.4633  151.9165  155.3275 C.3     1  UNL1        0.0725
     16 O         138.5742  149.3051  155.8871 O.2     1  UNL1       -0.4562
     17 C         139.0295  139.5199  157.9568 C.3     1  UNL1        0.2526
     18 O         137.9161  140.0734  157.1177 O.3     1  UNL1       -0.4684
     19 N         140.8258  144.4118  158.5183 N.pl3   1  UNL1       -0.3339
     20 H         141.7305  144.0682  158.3375 H       1  UNL1        0.1468
     21 C         140.3246  144.4988  159.9295 C.3     1  UNL1        0.0718
     22 C         140.2490  145.8294  160.6178 C.3     1  UNL1        0.0368
     23 C         139.7479  145.9165  162.0289 C.3     1  UNL1        0.0738
     24 N         139.3225  144.6730  162.7517 N.3     1  UNL1       -0.2714
     25 C         138.8213  144.7600  164.1629 C.3     1  UNL1        0.0896
     26 C         139.3981  143.3424  162.0634 C.3     1  UNL1        0.0738
     27 C         139.8992  143.2553  160.6523 C.3     1  UNL1        0.0368
     28 O         136.1614  140.9462  154.8463 O.3     1  UNL1       -0.4761
     29 C         134.8320  140.6692  155.4833 C.3     1  UNL1        0.1662
     30 C         134.3723  139.9037  156.6886 C.3     1  UNL1        0.0463
     31 C         132.9518  140.2773  156.3842 C.3     1  UNL1        0.0364
     32 C         133.4115  141.0428  155.1789 C.3     1  UNL1        0.0463
     33 C         132.4922  139.5118  157.5895 C.3     1  UNL1        0.0736
     34 N         131.0718  139.8855  157.2851 N.3     1  UNL1       -0.2714
     35 C         129.7423  139.6084  157.9222 C.3     1  UNL1        0.0896
     36 C         131.5314  140.6510  156.0799 C.3     1  UNL1        0.0736
@<TRIPOS>BOND
     1    17    18    1
     2    18     1    1
     3     1     2   ar
     4     2     3   ar
     5     3     4   ar
     6     4    19    1
     7    19    21    1
     8    21    22    1
     9    22    23    1
    10    23    24    1
    11    24    25    1
    12    24    26    1
    13    26    27    1
    14     4     5   ar
    15     5     6   ar
    16     6    11    1
    17    11    12   ar
    18    12    13   ar
    19    13    14   ar
    20    14    15    1
    21    14    16   ar
    22     6     7   ar
    23     7     8   ar
    24     8     9   ar
    25     9    10   ar
    26    10    28    1
    27    28    29    1
    28    29    30    1
    29    30    31    1
    30    31    32    1
    31    31    33    1
    32    33    34    1
    33    34    35    1
    34    34    36    1
    35    10     1   ar
    36    32    29    1
    37     8     3   ar
    38    36    31    1
    39    27    21    1
    40    16    11   ar
    41    19    20    1
@<TRIPOS>MOLECULE
*****
 36 41 0 0 0
SMALL
GASTEIGER

@<TRIPOS>ATOM
      1 C         142.1434  144.9798  156.1655 C.ar    1  UNL1        0.1725
      2 C         142.6740  144.3616  157.4249 C.ar    1  UNL1        0.0428
      3 C         141.8298  144.3430  158.6647 C.ar    1  UNL1        0.0340
      4 C         142.3605  143.7248  159.9242 C.ar    1  UNL1        0.0477
      5 C         141.5163  143.7063  161.1640 C.ar    1  UNL1        0.0365
      6 C         140.1415  144.3060  161.1442 C.ar    1  UNL1        0.1169
      7 N         139.6109  144.9242  159.8848 N.ar    1  UNL1       -0.2421
      8 C         140.4551  144.9427  158.6450 C.ar    1  UNL1        0.0858
      9 C         139.9245  145.5609  157.3856 C.ar    1  UNL1        0.0592
     10 C         140.7687  145.5794  156.1458 C.ar    1  UNL1        0.1735
     11 C         139.2974  144.2875  162.3840 C.ar    1  UNL1        0.1624
     12 C         137.9789  143.5898  162.5426 C.ar    1  UNL1        0.0418
     13 C         137.4902  143.8345  163.9395 C.ar    1  UNL1        0.0361
     14 C         138.5065  144.6834  164.6442 C.ar    1  UNL1        0.1234
     15 C         138.4209  145.1673  166.0614 C.3     1  UNL1        0.0725
     16 O         139.6234  144.9633  163.6828 O.2     1  UNL1       -0.4562
     17 C         143.1792  143.7413  154.1299 C.3     1  UNL1        0.2526
     18 O         142.9876  144.9983  154.9257 O.3     1  UNL1       -0.4684
     19 N         143.7352  143.1251  159.9439 N.pl3   1  UNL1       -0.3339
     20 H         144.3773  143.3425  159.2299 H       1  UNL1        0.1468
     21 C         144.1317  142.1943  161.0513 C.3     1  UNL1        0.0718
     22 C         144.8803  142.7193  162.2404 C.3     1  UNL1        0.0368
     23 C         145.2768  141.7885  163.3478 C.3     1  UNL1        0.0738
     24 N         144.9247  140.3328  163.2662 N.3     1  UNL1       -0.2714
     25 C         145.3211  139.4019  164.3737 C.3     1  UNL1        0.0896
     26 C         144.1760  139.8078  162.0771 C.3     1  UNL1        0.0738
     27 C         143.7796  140.7385  160.9697 C.3     1  UNL1        0.0368
     28 O         140.2380  146.1977  154.8863 O.3     1  UNL1       -0.4761
     29 C         139.8509  147.6467  154.8674 C.3     1  UNL1        0.1662
     30 C         140.1975  148.8261  154.0078 C.3     1  UNL1        0.0463
     31 C         139.3033  149.6960  154.8408 C.3     1  UNL1        0.0364
     32 C         138.9567  148.5166  155.7004 C.3     1  UNL1        0.0463
     33 C         139.6500  150.8753  153.9811 C.3     1  UNL1        0.0736
     34 N         138.7559  151.7452  154.8141 N.3     1  UNL1       -0.2714
     35 C         138.3687  153.1943  154.7952 C.3     1  UNL1        0.0896
     36 C         138.4093  150.5659  155.6736 C.3     1  UNL1        0.0736
@<TRIPOS>BOND
     1    17    18    1
     2    18     1    1
     3     1     2   ar
     4     2     3   ar
     5     3     4   ar
     6     4    19    1
     7    19    21    1
     8    21    22    1
     9    22    23    1
    10    23    24    1
    11    24    25    1
    12    24    26    1
    13    26    27    1
    14     4     5   ar
    15     5     6   ar
    16     6    11    1
    17    11    12   ar
    18    12    13   ar
    19    13    14   ar
    20    14    15    1
    21    14    16   ar
    22     6     7   ar
    23     7     8   ar
    24     8     9   ar
    25     9    10   ar
    26    10    28    1
    27    28    29    1
    28    29    30    1
    29    30    31    1
    30    31    32    1
    31    31    33    1
    32    33    34    1
    33    34    35    1
    34    34    36    1
    35    10     1   ar
    36    32    29    1
    37     8     3   ar
    38    36    31    1
    39    27    21    1
    40    16    11   ar
    41    19    20    1
@<TRIPOS>MOLECULE
*****
 36 41 0 0 0
SMALL
GASTEIGER

@<TRIPOS>ATOM
      1 C         137.4205  142.1465  155.0470 C.ar    1  UNL1        0.1725
      2 C         138.3435  143.3206  155.1866 C.ar    1  UNL1        0.0428
      3 C         138.9075  143.6757  156.5305 C.ar    1  UNL1        0.0340
      4 C         139.8305  144.8499  156.6700 C.ar    1  UNL1        0.0477
      5 C         140.3944  145.2049  158.0139 C.ar    1  UNL1        0.0365
      6 C         140.0354  144.3857  159.2181 C.ar    1  UNL1        0.1169
      7 N         139.1125  143.2116  159.0785 N.ar    1  UNL1       -0.2421
      8 C         138.5485  142.8566  157.7347 C.ar    1  UNL1        0.0858
      9 C         137.6256  141.6824  157.5951 C.ar    1  UNL1        0.0592
     10 C         137.0616  141.3274  156.2513 C.ar    1  UNL1        0.1735
     11 C         140.5994  144.7408  160.5619 C.ar    1  UNL1        0.1624
     12 C         139.8488  145.3807  161.6921 C.ar    1  UNL1        0.0418
     13 C         140.7985  145.5537  162.8402 C.ar    1  UNL1        0.0361
     14 C         142.1361  145.0206  162.4197 C.ar    1  UNL1        0.1234
     15 C         143.3785  144.9946  163.2596 C.3     1  UNL1        0.0725
     16 O         142.0130  144.5183  161.0116 O.2     1  UNL1       -0.4562
     17 C         136.1157  142.8225  152.9046 C.3     1  UNL1        0.2526
     18 O         136.8566  141.7914  153.7032 O.3     1  UNL1       -0.4684
     19 N         140.1894  145.6690  155.4658 N.pl3   1  UNL1       -0.3339
     20 H         140.6892  145.2594  154.7230 H       1  UNL1        0.1468
     21 C         139.7869  147.1122  155.3933 C.3     1  UNL1        0.0718
     22 C         138.9440  147.7112  156.4798 C.3     1  UNL1        0.0368
     23 C         138.5415  149.1544  156.4073 C.3     1  UNL1        0.0738
     24 N         138.9820  149.9985  155.2483 N.3     1  UNL1       -0.2714
     25 C         138.5795  151.4417  155.1757 C.3     1  UNL1        0.0896
     26 C         139.8249  149.3994  154.1617 C.3     1  UNL1        0.0738
     27 C         140.2274  147.9563  154.2342 C.3     1  UNL1        0.0368
     28 O         136.1386  140.1532  156.1117 O.3     1  UNL1       -0.4761
     29 C         134.6543  140.3662  156.0748 C.3     1  UNL1        0.1662
     30 C         133.4826  139.7999  156.8208 C.3     1  UNL1        0.0463
     31 C         132.5551  140.6674  156.0226 C.3     1  UNL1        0.0364
     32 C         133.7268  141.2337  155.2766 C.3     1  UNL1        0.0463
     33 C         131.3835  140.1011  156.7687 C.3     1  UNL1        0.0736
     34 N         130.4560  140.9686  155.9704 N.3     1  UNL1       -0.2714
     35 C         128.9716  141.1816  155.9336 C.3     1  UNL1        0.0896
     36 C         131.6276  141.5349  155.2244 C.3     1  UNL1        0.0736
@<TRIPOS>BOND
     1    17    18    1
     2    18     1    1
     3     1     2   ar
     4     2     3   ar
     5     3     4   ar
     6     4    19    1
     7    19    21    1
     8    21    22    1
     9    22    23    1
    10    23    24    1
    11    24    25    1
    12    24    26    1
    13    26    27    1
    14     4     5   ar
    15     5     6   ar
    16     6    11    1
    17    11    12   ar
    18    12    13   ar
    19    13    14   ar
    20    14    15    1
    21    14    16   ar
    22     6     7   ar
    23     7     8   ar
    24     8     9   ar
    25     9    10   ar
    26    10    28    1
    27    28    29    1
    28    29    30    1
    29    30    31    1
    30    31    32    1
    31    31    33    1
    32    33    34    1
    33    34    35    1
    34    34    36    1
    35    10     1   ar
    36    32    29    1
    37     8     3   ar
    38    36    31    1
    39    27    21    1
    40    16    11   ar
    41    19    20    1
@<TRIPOS>MOLECULE
*****
 36 41 0 0 0
SMALL
GASTEIGER

@<TRIPOS>ATOM
      1 C         144.4934  140.6435  163.3765 C.ar    1  UNL1        0.1725
      2 C         144.4127  141.1202  161.9566 C.ar    1  UNL1        0.0428
      3 C         143.8907  140.2069  160.8873 C.ar    1  UNL1        0.0340
      4 C         143.8100  140.6836  159.4673 C.ar    1  UNL1        0.0477
      5 C         143.2880  139.7703  158.3981 C.ar    1  UNL1        0.0365
      6 C         142.8467  138.3802  158.7488 C.ar    1  UNL1        0.1169
      7 N         142.9274  137.9035  160.1687 N.ar    1  UNL1       -0.2421
      8 C         143.4494  138.8168  161.2380 C.ar    1  UNL1        0.0858
      9 C         143.5301  138.3401  162.6579 C.ar    1  UNL1        0.0592
     10 C         144.0521  139.2535  163.7271 C.ar    1  UNL1        0.1735
     11 C         142.3247  137.4668  157.6795 C.ar    1  UNL1        0.1624
     12 C         141.1488  137.7350  156.7876 C.ar    1  UNL1        0.0418
     13 C         140.9843  136.5588  155.8713 C.ar    1  UNL1        0.0361
     14 C         142.0585  135.5637  156.1969 C.ar    1  UNL1        0.1234
     15 C         142.2675  134.2400  155.5232 C.3     1  UNL1        0.0725
     16 O         142.8869  136.1249  157.3144 O.2     1  UNL1       -0.4562
     17 C         144.1040  142.5633  165.0831 C.3     1  UNL1        0.2526
     18 O         145.0154  141.5569  164.4457 O.3     1  UNL1       -0.4684
     19 N         144.2513  142.0737  159.1167 N.pl3   1  UNL1       -0.3339
     20 H         145.2056  142.3121  159.1572 H       1  UNL1        0.1468
     21 C         143.2385  143.1005  158.7043 C.3     1  UNL1        0.0718
     22 C         142.3775  143.7623  159.7390 C.3     1  UNL1        0.0368
     23 C         141.3647  144.7891  159.3267 C.3     1  UNL1        0.0738
     24 N         141.2131  145.1541  157.8797 N.3     1  UNL1       -0.2714
     25 C         140.2003  146.1809  157.4674 C.3     1  UNL1        0.0896
     26 C         142.0741  144.4923  156.8451 C.3     1  UNL1        0.0738
     27 C         143.0869  143.4655  157.2573 C.3     1  UNL1        0.0368
     28 O         144.1328  138.7767  165.1471 O.3     1  UNL1       -0.4761
     29 C         143.0533  139.1406  166.1229 C.3     1  UNL1        0.1662
     30 C         141.6056  139.5170  166.0114 C.3     1  UNL1        0.0463
     31 C         141.5267  139.6553  167.5030 C.3     1  UNL1        0.0364
     32 C         142.9744  139.2789  167.6145 C.3     1  UNL1        0.0463
     33 C         140.0789  140.0317  167.3914 C.3     1  UNL1        0.0736
     34 N         140.0000  140.1699  168.8829 N.3     1  UNL1       -0.2714
     35 C         138.9204  140.5338  169.8587 C.3     1  UNL1        0.0896
     36 C         141.4476  139.7935  168.9944 C.3     1  UNL1        0.0736
@<TRIPOS>BOND
     1    17    18    1
     2    18     1    1
     3     1     2   ar
     4     2     3   ar
     5     3     4   ar
     6     4    19    1
     7    19    21    1
     8    21    22    1
     9    22    23    1
    10    23    24    1
    11    24    25    1
    12    24    26    1
    13    26    27    1
    14     4     5   ar
    15     5     6   ar
    16     6    11    1
    17    11    12   ar
    18    12    13   ar
    19    13    14   ar
    20    14    15    1
    21    14    16   ar
    22     6     7   ar
    23     7     8   ar
    24     8     9   ar
    25     9    10   ar
    26    10    28    1
    27    28    29    1
    28    29    30    1
    29    30    31    1
    30    31    32    1
    31    31    33    1
    32    33    34    1
    33    34    35    1
    34    34    36    1
    35    10     1   ar
    36    32    29    1
    37     8     3   ar
    38    36    31    1
    39    27    21    1
    40    16    11   ar
    41    19    20    1
@<TRIPOS>MOLECULE
*****
 36 41 0 0 0
SMALL
GASTEIGER

@<TRIPOS>ATOM
      1 C         140.2752  137.9398  162.9533 C.ar    1  UNL1        0.1725
      2 C         140.7579  138.0419  161.5368 C.ar    1  UNL1        0.0428
      3 C         139.9259  138.7518  160.5102 C.ar    1  UNL1        0.0340
      4 C         140.4087  138.8539  159.0937 C.ar    1  UNL1        0.0477
      5 C         139.5766  139.5637  158.0671 C.ar    1  UNL1        0.0365
      6 C         138.2618  140.1714  158.4571 C.ar    1  UNL1        0.1169
      7 N         137.7791  140.0693  159.8736 N.ar    1  UNL1       -0.2421
      8 C         138.6111  139.3594  160.9002 C.ar    1  UNL1        0.0858
      9 C         138.1284  139.2573  162.3167 C.ar    1  UNL1        0.0592
     10 C         138.9605  138.5475  163.3432 C.ar    1  UNL1        0.1735
     11 C         137.4297  140.8812  157.4305 C.ar    1  UNL1        0.1624
     12 C         137.7258  142.2239  156.8306 C.ar    1  UNL1        0.0418
     13 C         136.6345  142.5454  155.8529 C.ar    1  UNL1        0.0361
     14 C         135.6641  141.4016  155.8486 C.ar    1  UNL1        0.1234
     15 C         134.4206  141.3036  155.0156 C.3     1  UNL1        0.0725
     16 O         136.1556  140.3731  156.8236 O.2     1  UNL1       -0.4562
     17 C         142.2173  137.9573  164.6790 C.3     1  UNL1        0.2526
     18 O         141.1073  137.2300  163.9799 O.3     1  UNL1       -0.4684
     19 N         141.7234  138.2462  158.7038 N.pl3   1  UNL1       -0.3339
     20 H         141.8856  137.2866  158.8525 H       1  UNL1        0.1468
     21 C         142.7912  139.1006  158.0872 C.3     1  UNL1        0.0718
     22 C         143.4161  140.2093  158.8811 C.3     1  UNL1        0.0368
     23 C         144.4837  141.0637  158.2646 C.3     1  UNL1        0.0738
     24 N         144.9265  140.8093  156.8543 N.3     1  UNL1       -0.2714
     25 C         145.9942  141.6637  156.2377 C.3     1  UNL1        0.0896
     26 C         144.3016  139.7006  156.0604 C.3     1  UNL1        0.0738
     27 C         143.2339  138.8462  156.6768 C.3     1  UNL1        0.0368
     28 O         138.4777  138.4453  164.7598 O.3     1  UNL1       -0.4761
     29 C         139.0084  139.3839  165.8025 C.3     1  UNL1        0.1662
     30 C         139.7870  140.6658  165.7782 C.3     1  UNL1        0.0463
     31 C         139.7590  140.7113  167.2772 C.3     1  UNL1        0.0364
     32 C         138.9803  139.4295  167.3016 C.3     1  UNL1        0.0463
     33 C         140.5376  141.9932  167.2528 C.3     1  UNL1        0.0736
     34 N         140.5095  142.0388  168.7518 N.3     1  UNL1       -0.2714
     35 C         141.0403  142.9774  169.7946 C.3     1  UNL1        0.0896
     36 C         139.7310  140.7570  168.7762 C.3     1  UNL1        0.0736
@<TRIPOS>BOND
     1    17    18    1
     2    18     1    1
     3     1     2   ar
     4     2     3   ar
     5     3     4   ar
     6     4    19    1
     7    19    21    1
     8    21    22    1
     9    22    23    1
    10    23    24    1
    11    24    25    1
    12    24    26    1
    13    26    27    1
    14     4     5   ar
    15     5     6   ar
    16     6    11    1
    17    11    12   ar
    18    12    13   ar
    19    13    14   ar
    20    14    15    1
    21    14    16   ar
    22     6     7   ar
    23     7     8   ar
    24     8     9   ar
    25     9    10   ar
    26    10    28    1
    27    28    29    1
    28    29    30    1
    29    30    31    1
    30    31    32    1
    31    31    33    1
    32    33    34    1
    33    34    35    1
    34    34    36    1
    35    10     1   ar
    36    32    29    1
    37     8     3   ar
    38    36    31    1
    39    27    21    1
    40    16    11   ar
    41    19    20    1
@<TRIPOS>MOLECULE
*****
 36 41 0 0 0
SMALL
GASTEIGER

@<TRIPOS>ATOM
      1 C         142.6639  138.9439  158.9627 C.ar    1  UNL1        0.1725
      2 C         141.6490  139.8951  159.5240 C.ar    1  UNL1        0.0428
      3 C         140.3548  140.1238  158.8008 C.ar    1  UNL1        0.0340
      4 C         139.3399  141.0751  159.3622 C.ar    1  UNL1        0.0477
      5 C         138.0458  141.3037  158.6391 C.ar    1  UNL1        0.0365
      6 C         137.7666  140.5812  157.3545 C.ar    1  UNL1        0.1169
      7 N         138.7815  139.6300  156.7932 N.ar    1  UNL1       -0.2421
      8 C         140.0756  139.4013  157.5163 C.ar    1  UNL1        0.0858
      9 C         141.0905  138.4501  156.9550 C.ar    1  UNL1        0.0592
     10 C         142.3847  138.2214  157.6782 C.ar    1  UNL1        0.1735
     11 C         136.4725  140.8099  156.6313 C.ar    1  UNL1        0.1624
     12 C         136.2817  141.6667  155.4150 C.ar    1  UNL1        0.0418
     13 C         134.8332  141.6083  155.0295 C.ar    1  UNL1        0.0361
     14 C         134.1289  140.7153  156.0075 C.ar    1  UNL1        0.1234
     15 C         132.6680  140.3755  155.9973 C.3     1  UNL1        0.0725
     16 O         135.1420  140.2219  156.9975 O.2     1  UNL1       -0.4562
     17 C         143.9669  138.5658  161.1783 C.3     1  UNL1        0.2526
     18 O         143.9580  138.7152  159.6858 O.3     1  UNL1       -0.4684
     19 N         139.6191  141.7976  160.6467 N.pl3   1  UNL1       -0.3339
     20 H         140.0416  142.6866  160.6296 H       1  UNL1        0.1468
     21 C         139.2546  141.1655  161.9574 C.3     1  UNL1        0.0718
     22 C         139.4777  141.9132  163.2384 C.3     1  UNL1        0.0368
     23 C         139.1133  141.2812  164.5490 C.3     1  UNL1        0.0738
     24 N         138.5256  139.9014  164.5785 N.3     1  UNL1       -0.2714
     25 C         138.1611  139.2693  165.8891 C.3     1  UNL1        0.0896
     26 C         138.3025  139.1537  163.2975 C.3     1  UNL1        0.0738
     27 C         138.6670  139.7857  161.9869 C.3     1  UNL1        0.0368
     28 O         143.3996  137.2701  157.1168 O.3     1  UNL1       -0.4761
     29 C         142.9892  135.8823  156.7225 C.3     1  UNL1        0.1662
     30 C         143.4038  134.4985  157.1265 C.3     1  UNL1        0.0463
     31 C         142.4088  133.9196  156.1648 C.3     1  UNL1        0.0364
     32 C         141.9942  135.3034  155.7608 C.3     1  UNL1        0.0463
     33 C         142.8235  132.5359  156.5688 C.3     1  UNL1        0.0736
     34 N         141.8285  131.9570  155.6072 N.3     1  UNL1       -0.2714
     35 C         141.4182  130.5691  155.2129 C.3     1  UNL1        0.0896
     36 C         141.4139  133.3407  155.2032 C.3     1  UNL1        0.0736
@<TRIPOS>BOND
     1    17    18    1
     2    18     1    1
     3     1     2   ar
     4     2     3   ar
     5     3     4   ar
     6     4    19    1
     7    19    21    1
     8    21    22    1
     9    22    23    1
    10    23    24    1
    11    24    25    1
    12    24    26    1
    13    26    27    1
    14     4     5   ar
    15     5     6   ar
    16     6    11    1
    17    11    12   ar
    18    12    13   ar
    19    13    14   ar
    20    14    15    1
    21    14    16   ar
    22     6     7   ar
    23     7     8   ar
    24     8     9   ar
    25     9    10   ar
    26    10    28    1
    27    28    29    1
    28    29    30    1
    29    30    31    1
    30    31    32    1
    31    31    33    1
    32    33    34    1
    33    34    35    1
    34    34    36    1
    35    10     1   ar
    36    32    29    1
    37     8     3   ar
    38    36    31    1
    39    27    21    1
    40    16    11   ar
    41    19    20    1
@<TRIPOS>MOLECULE
*****
 36 41 0 0 0
SMALL
GASTEIGER

@<TRIPOS>ATOM
      1 C         144.0614  140.5762  162.1011 C.ar    1  UNL1        0.1725
      2 C         143.7578  140.9073  160.6700 C.ar    1  UNL1        0.0428
      3 C         143.3903  139.8155  159.7093 C.ar    1  UNL1        0.0340
      4 C         143.0867  140.1467  158.2781 C.ar    1  UNL1        0.0477
      5 C         142.7192  139.0549  157.3174 C.ar    1  UNL1        0.0365
      6 C         142.6553  137.6320  157.7879 C.ar    1  UNL1        0.1169
      7 N         142.9589  137.3009  159.2190 N.ar    1  UNL1       -0.2421
      8 C         143.3264  138.3927  160.1797 C.ar    1  UNL1        0.0858
      9 C         143.6300  138.0616  161.6108 C.ar    1  UNL1        0.0592
     10 C         143.9975  139.1533  162.5715 C.ar    1  UNL1        0.1735
     11 C         142.2878  136.5402  156.8271 C.ar    1  UNL1        0.1624
     12 C         141.4607  136.6995  155.5859 C.ar    1  UNL1        0.0418
     13 C         141.3447  135.3551  154.9306 C.ar    1  UNL1        0.0361
     14 C         142.1000  134.3650  155.7668 C.ar    1  UNL1        0.1234
     15 C         142.2466  132.8999  155.4811 C.3     1  UNL1        0.0725
     16 O         142.6829  135.0975  156.9389 O.2     1  UNL1       -0.4562
     17 C         145.8455  141.8049  163.5353 C.3     1  UNL1        0.2526
     18 O         144.4289  141.6680  163.0618 O.3     1  UNL1       -0.4684
     19 N         143.1505  141.5695  157.8077 N.pl3   1  UNL1       -0.3339
     20 H         142.4665  142.2152  158.0982 H       1  UNL1        0.1468
     21 C         144.2567  142.0087  156.8946 C.3     1  UNL1        0.0718
     22 C         145.6774  141.9920  157.3756 C.3     1  UNL1        0.0368
     23 C         146.7835  142.4312  156.4626 C.3     1  UNL1        0.0738
     24 N         146.4689  142.8869  155.0686 N.3     1  UNL1       -0.2714
     25 C         147.5751  143.3261  154.1555 C.3     1  UNL1        0.0896
     26 C         145.0482  142.9036  154.5876 C.3     1  UNL1        0.0738
     27 C         143.9421  142.4645  155.5006 C.3     1  UNL1        0.0368
     28 O         144.3011  138.8222  164.0027 O.3     1  UNL1       -0.4761
     29 C         143.3010  139.1400  165.0745 C.3     1  UNL1        0.1662
     30 C         143.3056  139.1035  166.5741 C.3     1  UNL1        0.0463
     31 C         141.8866  139.5895  166.5903 C.3     1  UNL1        0.0364
     32 C         141.8820  139.6260  165.0907 C.3     1  UNL1        0.0463
     33 C         141.8913  139.5529  168.0898 C.3     1  UNL1        0.0736
     34 N         140.4723  140.0389  168.1060 N.3     1  UNL1       -0.2714
     35 C         139.4722  140.3567  169.1779 C.3     1  UNL1        0.0896
     36 C         140.4677  140.0754  166.6066 C.3     1  UNL1        0.0736
@<TRIPOS>BOND
     1    17    18    1
     2    18     1    1
     3     1     2   ar
     4     2     3   ar
     5     3     4   ar
     6     4    19    1
     7    19    21    1
     8    21    22    1
     9    22    23    1
    10    23    24    1
    11    24    25    1
    12    24    26    1
    13    26    27    1
    14     4     5   ar
    15     5     6   ar
    16     6    11    1
    17    11    12   ar
    18    12    13   ar
    19    13    14   ar
    20    14    15    1
    21    14    16   ar
    22     6     7   ar
    23     7     8   ar
    24     8     9   ar
    25     9    10   ar
    26    10    28    1
    27    28    29    1
    28    29    30    1
    29    30    31    1
    30    31    32    1
    31    31    33    1
    32    33    34    1
    33    34    35    1
    34    34    36    1
    35    10     1   ar
    36    32    29    1
    37     8     3   ar
    38    36    31    1
    39    27    21    1
    40    16    11   ar
    41    19    20    1
@<TRIPOS>MOLECULE
*****
 36 41 0 0 0
SMALL
GASTEIGER

@<TRIPOS>ATOM
      1 C         144.8055  142.1638  162.3520 C.ar    1  UNL1        0.1725
      2 C         144.6912  141.8058  160.8999 C.ar    1  UNL1        0.0428
      3 C         143.7464  142.5615  160.0132 C.ar    1  UNL1        0.0340
      4 C         143.6322  142.2035  158.5610 C.ar    1  UNL1        0.0477
      5 C         142.6874  142.9593  157.6743 C.ar    1  UNL1        0.0365
      6 C         141.8568  144.0730  158.2399 C.ar    1  UNL1        0.1169
      7 N         141.9710  144.4309  159.6920 N.ar    1  UNL1       -0.2421
      8 C         142.9158  143.6752  160.5787 C.ar    1  UNL1        0.0858
      9 C         143.0301  144.0332  162.0308 C.ar    1  UNL1        0.0592
     10 C         143.9749  143.2775  162.9175 C.ar    1  UNL1        0.1735
     11 C         140.9119  144.8287  157.3532 C.ar    1  UNL1        0.1624
     12 C         140.1797  144.2726  156.1679 C.ar    1  UNL1        0.0418
     13 C         139.3487  145.3735  155.5783 C.ar    1  UNL1        0.0361
     14 C         139.5673  146.6098  156.3991 C.ar    1  UNL1        0.1234
     15 C         138.9314  147.9478  156.1642 C.3     1  UNL1        0.0725
     16 O         140.5334  146.2731  157.4960 O.2     1  UNL1       -0.4562
     17 C         145.2612  140.2248  164.0201 C.3     1  UNL1        0.2526
     18 O         145.7503  141.4081  163.2387 O.3     1  UNL1       -0.4684
     19 N         144.4628  141.0898  157.9955 N.pl3   1  UNL1       -0.3339
     20 H         144.3939  140.1835  158.3737 H       1  UNL1        0.1468
     21 C         145.3984  141.3571  156.8539 C.3     1  UNL1        0.0718
     22 C         146.4924  142.3725  157.0028 C.3     1  UNL1        0.0368
     23 C         147.4280  142.6398  155.8612 C.3     1  UNL1        0.0738
     24 N         147.2696  141.8917  154.5708 N.3     1  UNL1       -0.2714
     25 C         148.2053  142.1589  153.4292 C.3     1  UNL1        0.0896
     26 C         146.1757  140.8762  154.4220 C.3     1  UNL1        0.0738
     27 C         145.2400  140.6090  155.5635 C.3     1  UNL1        0.0368
     28 O         144.0891  143.6355  164.3697 O.3     1  UNL1       -0.4761
     29 C         143.1570  143.0184  165.3699 C.3     1  UNL1        0.1662
     30 C         143.3097  142.4369  166.7441 C.3     1  UNL1        0.0463
     31 C         141.8388  142.1456  166.7843 C.3     1  UNL1        0.0364
     32 C         141.6861  142.7271  165.4100 C.3     1  UNL1        0.0463
     33 C         141.9916  141.5642  168.1586 C.3     1  UNL1        0.0736
     34 N         140.5207  141.2729  168.1988 N.3     1  UNL1       -0.2714
     35 C         139.5886  140.6557  169.1990 C.3     1  UNL1        0.0896
     36 C         140.3680  141.8543  166.8246 C.3     1  UNL1        0.0736
@<TRIPOS>BOND
     1    17    18    1
     2    18     1    1
     3     1     2   ar
     4     2     3   ar
     5     3     4   ar
     6     4    19    1
     7    19    21    1
     8    21    22    1
     9    22    23    1
    10    23    24    1
    11    24    25    1
    12    24    26    1
    13    26    27    1
    14     4     5   ar
    15     5     6   ar
    16     6    11    1
    17    11    12   ar
    18    12    13   ar
    19    13    14   ar
    20    14    15    1
    21    14    16   ar
    22     6     7   ar
    23     7     8   ar
    24     8     9   ar
    25     9    10   ar
    26    10    28    1
    27    28    29    1
    28    29    30    1
    29    30    31    1
    30    31    32    1
    31    31    33    1
    32    33    34    1
    33    34    35    1
    34    34    36    1
    35    10     1   ar
    36    32    29    1
    37     8     3   ar
    38    36    31    1
    39    27    21    1
    40    16    11   ar
    41    19    20    1
@<TRIPOS>MOLECULE
*****
 36 41 0 0 0
SMALL
GASTEIGER

@<TRIPOS>ATOM
      1 C         141.0469  138.2492  156.4672 C.ar    1  UNL1        0.1725
      2 C         139.8453  139.0583  156.8564 C.ar    1  UNL1        0.0428
      3 C         139.5542  139.3197  158.3045 C.ar    1  UNL1        0.0340
      4 C         138.3525  140.1289  158.6937 C.ar    1  UNL1        0.0477
      5 C         138.0613  140.3903  160.1418 C.ar    1  UNL1        0.0365
      6 C         138.9718  139.8426  161.2006 C.ar    1  UNL1        0.1169
      7 N         140.1734  139.0335  160.8114 N.ar    1  UNL1       -0.2421
      8 C         140.4645  138.7721  159.3633 C.ar    1  UNL1        0.0858
      9 C         141.6661  137.9630  158.9741 C.ar    1  UNL1        0.0592
     10 C         141.9573  137.7015  157.5261 C.ar    1  UNL1        0.1735
     11 C         138.6806  140.1040  162.6487 C.ar    1  UNL1        0.1624
     12 C         138.4057  141.4437  163.2649 C.ar    1  UNL1        0.0418
     13 C         138.1684  141.2393  164.7318 C.ar    1  UNL1        0.0361
     14 C         138.2966  139.7732  165.0223 C.ar    1  UNL1        0.1234
     15 C         138.1364  139.1231  166.3644 C.3     1  UNL1        0.0725
     16 O         138.6131  139.0716  163.7348 O.2     1  UNL1       -0.4562
     17 C         142.3728  138.8041  154.3030 C.3     1  UNL1        0.2526
     18 O         141.3381  137.9878  155.0192 O.3     1  UNL1       -0.4684
     19 N         137.4421  140.6766  157.6349 N.pl3   1  UNL1       -0.3339
     20 H         136.6530  140.1616  157.3496 H       1  UNL1        0.1468
     21 C         137.7340  142.0090  157.0106 C.3     1  UNL1        0.0718
     22 C         138.9643  142.7698  157.4074 C.3     1  UNL1        0.0368
     23 C         139.2562  144.1021  156.7832 C.3     1  UNL1        0.0738
     24 N         138.3178  144.6736  155.7622 N.3     1  UNL1       -0.2714
     25 C         138.6096  146.0060  155.1379 C.3     1  UNL1        0.0896
     26 C         137.0874  143.9128  155.3653 C.3     1  UNL1        0.0738
     27 C         136.7956  142.5805  155.9895 C.3     1  UNL1        0.0368
     28 O         143.1589  136.8924  157.1369 O.3     1  UNL1       -0.4761
     29 C         143.0224  135.4198  156.8862 C.3     1  UNL1        0.1662
     30 C         142.2379  134.5756  155.9262 C.3     1  UNL1        0.0463
     31 C         142.8294  133.3373  156.5318 C.3     1  UNL1        0.0364
     32 C         143.6139  134.1815  157.4918 C.3     1  UNL1        0.0463
     33 C         142.0448  132.4931  155.5716 C.3     1  UNL1        0.0736
     34 N         142.6363  131.2547  156.1773 N.3     1  UNL1       -0.2714
     35 C         142.4997  129.7821  155.9266 C.3     1  UNL1        0.0896
     36 C         143.4208  132.0989  157.1373 C.3     1  UNL1        0.0736
@<TRIPOS>BOND
     1    17    18    1
     2    18     1    1
     3     1     2   ar
     4     2     3   ar
     5     3     4   ar
     6     4    19    1
     7    19    21    1
     8    21    22    1
     9    22    23    1
    10    23    24    1
    11    24    25    1
    12    24    26    1
    13    26    27    1
    14     4     5   ar
    15     5     6   ar
    16     6    11    1
    17    11    12   ar
    18    12    13   ar
    19    13    14   ar
    20    14    15    1
    21    14    16   ar
    22     6     7   ar
    23     7     8   ar
    24     8     9   ar
    25     9    10   ar
    26    10    28    1
    27    28    29    1
    28    29    30    1
    29    30    31    1
    30    31    32    1
    31    31    33    1
    32    33    34    1
    33    34    35    1
    34    34    36    1
    35    10     1   ar
    36    32    29    1
    37     8     3   ar
    38    36    31    1
    39    27    21    1
    40    16    11   ar
    41    19    20    1
