@<TRIPOS>MOLECULE
*****
 42 47 0 0 0
SMALL
GASTEIGER

@<TRIPOS>ATOM
      1 C         142.7896  135.7905  157.7658 C.ar    1  UNL1        0.2400
      2 N         142.2250  135.2973  156.4666 N.ar    1  UNL1       -0.2090
      3 C         141.4893  136.2410  155.5622 C.ar    1  UNL1        0.1036
      4 C         141.1398  137.7397  155.6546 C.ar    1  UNL1        0.0383
      5 C         141.9088  137.2341  156.8390 C.ar    1  UNL1        0.0236
      6 C         142.6184  137.2276  158.1605 C.ar    1  UNL1        0.1179
      7 N         143.1831  137.7209  159.4597 N.pl3   1  UNL1       -0.2104
      8 S         143.5345  138.6545  160.5798 S.O2    1  UNL1        0.0759
      9 O         144.2741  138.4784  161.8730 O.2     1  UNL1       -0.1499
     10 O         144.0244  137.2536  160.7981 O.2     1  UNL1       -0.1499
     11 C         143.6305  139.9159  161.3859 C.ar    1  UNL1        0.1527
     12 C         143.4594  141.3528  161.7806 C.ar    1  UNL1        0.0293
     13 C         143.0418  142.7921  161.7164 C.ar    1  UNL1        0.0822
     14 C         143.8224  142.4386  162.9980 C.ar    1  UNL1        0.1468
     15 F         143.9184  143.7000  163.8040 F       1  UNL1       -0.2039
     16 C         144.4361  141.1706  163.5135 C.ar    1  UNL1        0.0608
     17 C         144.3402  139.9092  162.7074 C.ar    1  UNL1        0.1611
     18 F         144.9538  138.6413  163.2229 F       1  UNL1       -0.2027
     19 C         142.4282  144.0600  161.2009 C.2     1  UNL1        0.2483
     20 O         142.7796  144.9936  162.3211 O.2     1  UNL1       -0.2701
     21 N         141.6924  145.0038  160.2965 N.am    1  UNL1       -0.2968
     22 C         140.9234  145.5094  159.1120 C.3     1  UNL1        0.1181
     23 C         140.2137  145.5160  157.7905 C.ar    1  UNL1        0.0166
     24 C         139.6001  146.7839  157.2751 C.ar    1  UNL1        0.0962
     25 N         138.8904  146.7905  155.9536 N.ar    1  UNL1       -0.2426
     26 C         138.7945  145.5291  155.1475 C.ar    1  UNL1        0.0989
     27 C         139.4081  144.2612  155.6630 C.ar    1  UNL1        0.0205
     28 C         140.1177  144.2546  156.9844 C.ar    1  UNL1        0.0005
     29 C         139.2016  142.8277  154.5651 C.ar    1  UNL1        0.0222
     30 C         138.4659  143.7714  153.6606 C.ar    1  UNL1        0.0222
     31 C         137.9013  143.2782  152.3614 C.ar    1  UNL1        0.0989
     32 N         138.0724  141.8412  151.9668 N.ar    1  UNL1       -0.2423
     33 C         138.8082  140.8974  152.8712 C.ar    1  UNL1        0.0989
     34 C         139.0896  139.2672  152.5864 C.ar    1  UNL1        0.0222
     35 C         139.8121  138.2648  153.4369 C.ar    1  UNL1        0.0207
     36 C         140.4040  138.6835  154.7501 C.ar    1  UNL1        0.0829
     37 N         139.7903  139.9515  154.2346 N.ar    1  UNL1       -0.2438
     38 C         139.3728  141.3907  154.1704 C.ar    1  UNL1        0.0989
     39 H         143.5858  136.8887  159.7980 H       1  UNL1        0.1739
     40 H         141.7554  145.8317  160.8255 H       1  UNL1        0.1501
     41 C         144.1024  133.5766  158.1193 C.3     1  UNL1        0.2543
     42 O         143.5253  134.8469  158.6703 O.3     1  UNL1       -0.4553
@<TRIPOS>BOND
     1    41    42    1
     2    42     1    1
     3     1     2   ar
     4     2     3   ar
     5     3     4   ar
     6     4     5   ar
     7     5     6   ar
     8     6     7    1
     9     7     8    1
    10     8     9    2
    11     8    10    2
    12     8    11    1
    13    11    12   ar
    14    12    13   ar
    15    13    14   ar
    16    14    15    1
    17    14    16   ar
    18    16    17   ar
    19    17    18    1
    20    13    19    1
    21    19    20    2
    22    19    21   am
    23    21    22    1
    24    22    23    1
    25    23    24   ar
    26    24    25   ar
    27    25    26   ar
    28    26    27   ar
    29    27    28   ar
    30    27    29    1
    31    29    30   ar
    32    30    31   ar
    33    31    32   ar
    34    32    33   ar
    35    33    34   ar
    36    34    35   ar
    37    35    36   ar
    38    36    37   ar
    39    37    38   ar
    40     6     1   ar
    41    17    11   ar
    42    28    23   ar
    43    38    29   ar
    44    36     4    1
    45    38    33   ar
    46     7    39    1
    47    21    40    1
@<TRIPOS>MOLECULE
*****
 42 47 0 0 0
SMALL
GASTEIGER

@<TRIPOS>ATOM
      1 C         139.4068  145.8078  156.0905 C.ar    1  UNL1        0.2400
      2 N         139.1765  145.5846  154.6253 N.ar    1  UNL1       -0.2090
      3 C         139.4854  144.2510  154.0120 C.ar    1  UNL1        0.1036
      4 C         140.0355  142.9271  154.5789 C.ar    1  UNL1        0.0383
      5 C         139.8972  144.0050  155.6128 C.ar    1  UNL1        0.0236
      6 C         139.9461  144.6973  156.9426 C.ar    1  UNL1        0.1179
      7 N         140.1765  144.9204  158.4080 N.pl3   1  UNL1       -0.2104
      8 S         140.5605  144.6474  159.8320 S.O2    1  UNL1        0.0759
      9 O         140.5466  145.4802  161.0796 O.2     1  UNL1       -0.1499
     10 O         140.0582  146.0432  159.6092 O.2     1  UNL1       -0.1499
     11 C         141.0518  143.9113  161.0431 C.ar    1  UNL1        0.1527
     12 C         141.5910  142.8009  161.8952 C.ar    1  UNL1        0.0293
     13 C         142.1134  141.4500  162.2854 C.ar    1  UNL1        0.0822
     14 C         142.0343  142.4391  163.4654 C.ar    1  UNL1        0.1468
     15 F         142.5256  141.7030  164.6765 F       1  UNL1       -0.2039
     16 C         141.5920  143.8676  163.5841 C.ar    1  UNL1        0.0608
     17 C         141.1007  144.6037  162.3729 C.ar    1  UNL1        0.1611
     18 F         140.6585  146.0320  162.4916 F       1  UNL1       -0.2027
     19 C         142.5556  140.0216  162.1668 C.2     1  UNL1        0.2483
     20 O         142.9396  139.7487  163.5908 O.2     1  UNL1       -0.2701
     21 N         142.8646  138.6880  161.5535 N.am    1  UNL1       -0.2968
     22 C         143.0029  137.6101  160.5197 C.3     1  UNL1        0.1181
     23 C         142.9539  136.9177  159.1898 C.ar    1  UNL1        0.0166
     24 C         143.3962  135.4894  159.0712 C.ar    1  UNL1        0.0962
     25 N         143.3472  134.7971  157.7414 N.ar    1  UNL1       -0.2426
     26 C         142.8559  135.5332  156.5303 C.ar    1  UNL1        0.0989
     27 C         142.4136  136.9616  156.6489 C.ar    1  UNL1        0.0205
     28 C         142.4626  137.6538  157.9787 C.ar    1  UNL1        0.0005
     29 C         141.8483  137.7037  155.0893 C.ar    1  UNL1        0.0222
     30 C         142.1572  136.3701  154.4761 C.ar    1  UNL1        0.0222
     31 C         141.9268  136.1470  153.0107 C.ar    1  UNL1        0.0989
     32 N         141.3875  137.2575  152.1587 N.ar    1  UNL1       -0.2423
     33 C         141.0786  138.5911  152.7720 C.ar    1  UNL1        0.0989
     34 C         140.4731  139.9355  151.9695 C.ar    1  UNL1        0.0222
     35 C         140.1407  141.2948  152.5099 C.ar    1  UNL1        0.0207
     36 C         140.3444  141.5935  153.9657 C.ar    1  UNL1        0.0829
     37 N         140.7867  140.1650  153.8470 N.ar    1  UNL1       -0.2438
     38 C         141.3090  138.8142  154.2373 C.ar    1  UNL1        0.0989
     39 H         139.8862  145.8579  158.4858 H       1  UNL1        0.1739
     40 H         143.1870  138.2049  162.3484 H       1  UNL1        0.1501
     41 C         138.8456  148.3306  155.8251 C.3     1  UNL1        0.2543
     42 O         139.0979  147.1414  156.7038 O.3     1  UNL1       -0.4553
@<TRIPOS>BOND
     1    41    42    1
     2    42     1    1
     3     1     2   ar
     4     2     3   ar
     5     3     4   ar
     6     4     5   ar
     7     5     6   ar
     8     6     7    1
     9     7     8    1
    10     8     9    2
    11     8    10    2
    12     8    11    1
    13    11    12   ar
    14    12    13   ar
    15    13    14   ar
    16    14    15    1
    17    14    16   ar
    18    16    17   ar
    19    17    18    1
    20    13    19    1
    21    19    20    2
    22    19    21   am
    23    21    22    1
    24    22    23    1
    25    23    24   ar
    26    24    25   ar
    27    25    26   ar
    28    26    27   ar
    29    27    28   ar
    30    27    29    1
    31    29    30   ar
    32    30    31   ar
    33    31    32   ar
    34    32    33   ar
    35    33    34   ar
    36    34    35   ar
    37    35    36   ar
    38    36    37   ar
    39    37    38   ar
    40     6     1   ar
    41    17    11   ar
    42    28    23   ar
    43    38    29   ar
    44    36     4    1
    45    38    33   ar
    46     7    39    1
    47    21    40    1
@<TRIPOS>MOLECULE
*****
 42 47 0 0 0
SMALL
GASTEIGER

@<TRIPOS>ATOM
      1 C         143.2709  136.8537  156.4950 C.ar    1  UNL1        0.2400
      2 N         143.3056  135.9020  157.6538 N.ar    1  UNL1       -0.2090
      3 C         142.9142  136.3729  159.0231 C.ar    1  UNL1        0.1036
      4 C         142.4393  137.7296  159.5804 C.ar    1  UNL1        0.0383
      5 C         142.7160  137.7560  158.1064 C.ar    1  UNL1        0.0236
      6 C         142.8449  138.2765  156.7056 C.ar    1  UNL1        0.1179
      7 N         142.8102  139.2284  155.5468 N.pl3   1  UNL1       -0.2104
      8 S         142.6162  140.4967  154.7699 S.O2    1  UNL1        0.0759
      9 O         142.7970  140.8566  153.3249 O.2     1  UNL1       -0.1499
     10 O         143.0894  139.3499  153.9266 O.2     1  UNL1       -0.1499
     11 C         142.2863  141.9286  154.4685 C.ar    1  UNL1        0.1527
     12 C         141.8603  143.3513  154.6791 C.ar    1  UNL1        0.0293
     13 C         141.3895  144.5933  155.3761 C.ar    1  UNL1        0.0822
     14 C         141.6265  144.7925  153.8658 C.ar    1  UNL1        0.1468
     15 F         141.2966  146.2244  153.5644 F       1  UNL1       -0.2039
     16 C         142.0852  143.8811  152.7662 C.ar    1  UNL1        0.0608
     17 C         142.4151  142.4492  153.0676 C.ar    1  UNL1        0.1611
     18 F         142.8739  141.5378  151.9681 F       1  UNL1       -0.2027
     19 C         140.9308  145.5047  156.4756 C.2     1  UNL1        0.2483
     20 O         140.7368  146.7730  155.6987 O.2     1  UNL1       -0.2701
     21 N         140.5394  145.9756  157.8450 N.am    1  UNL1       -0.2968
     22 C         140.2627  145.9492  159.3190 C.3     1  UNL1        0.1181
     23 C         140.1338  145.4287  160.7199 C.ar    1  UNL1        0.0166
     24 C         139.6751  146.3401  161.8194 C.ar    1  UNL1        0.0962
     25 N         139.5463  145.8196  163.2202 N.ar    1  UNL1       -0.2426
     26 C         139.8762  144.3877  163.5216 C.ar    1  UNL1        0.0989
     27 C         140.3349  143.4763  162.4221 C.ar    1  UNL1        0.0205
     28 C         140.4637  143.9968  161.0213 C.ar    1  UNL1        0.0005
     29 C         140.6924  141.7766  162.9570 C.ar    1  UNL1        0.0222
     30 C         140.3010  142.2475  164.3263 C.ar    1  UNL1        0.0222
     31 C         140.3357  141.2956  165.4851 C.ar    1  UNL1        0.0989
     32 N         140.7617  139.8729  165.2745 N.ar    1  UNL1       -0.2423
     33 C         141.1531  139.4020  163.9052 C.ar    1  UNL1        0.0989
     34 C         141.6520  137.8528  163.4939 C.ar    1  UNL1        0.0222
     35 C         142.0571  137.3088  162.1560 C.ar    1  UNL1        0.0207
     36 C         142.0479  138.2005  160.9498 C.ar    1  UNL1        0.0829
     37 N         141.5892  139.1119  162.0494 N.ar    1  UNL1       -0.2438
     38 C         141.1184  140.3539  162.7463 C.ar    1  UNL1        0.0989
     39 H         143.1113  138.6302  154.8251 H       1  UNL1        0.1739
     40 H         140.3229  146.9154  157.6472 H       1  UNL1        0.1501
     41 C         142.6418  135.7404  154.2335 C.3     1  UNL1        0.2543
     42 O         143.6622  136.3829  155.1256 O.3     1  UNL1       -0.4553
@<TRIPOS>BOND
     1    41    42    1
     2    42     1    1
     3     1     2   ar
     4     2     3   ar
     5     3     4   ar
     6     4     5   ar
     7     5     6   ar
     8     6     7    1
     9     7     8    1
    10     8     9    2
    11     8    10    2
    12     8    11    1
    13    11    12   ar
    14    12    13   ar
    15    13    14   ar
    16    14    15    1
    17    14    16   ar
    18    16    17   ar
    19    17    18    1
    20    13    19    1
    21    19    20    2
    22    19    21   am
    23    21    22    1
    24    22    23    1
    25    23    24   ar
    26    24    25   ar
    27    25    26   ar
    28    26    27   ar
    29    27    28   ar
    30    27    29    1
    31    29    30   ar
    32    30    31   ar
    33    31    32   ar
    34    32    33   ar
    35    33    34   ar
    36    34    35   ar
    37    35    36   ar
    38    36    37   ar
    39    37    38   ar
    40     6     1   ar
    41    17    11   ar
    42    28    23   ar
    43    38    29   ar
    44    36     4    1
    45    38    33   ar
    46     7    39    1
    47    21    40    1
@<TRIPOS>MOLECULE
*****
 42 47 0 0 0
SMALL
GASTEIGER

@<TRIPOS>ATOM
      1 C         143.5495  139.9748  162.0497 C.ar    1  UNL1        0.2400
      2 N         143.4363  141.3471  162.6445 N.ar    1  UNL1       -0.2090
      3 C         142.7701  142.4468  161.8720 C.ar    1  UNL1        0.1036
      4 C         142.1102  142.5133  160.4802 C.ar    1  UNL1        0.0383
      5 C         142.6494  141.1551  160.8186 C.ar    1  UNL1        0.0236
      6 C         142.9966  139.7022  160.6821 C.ar    1  UNL1        0.1179
      7 N         143.1098  138.3299  160.0872 N.pl3   1  UNL1       -0.2104
      8 S         142.9755  137.2037  159.1056 S.O2    1  UNL1        0.0759
      9 O         143.3927  135.7630  159.1285 O.2     1  UNL1       -0.1499
     10 O         143.6716  136.8068  160.3737 O.2     1  UNL1       -0.1499
     11 C         142.6099  136.4594  157.8557 C.ar    1  UNL1        0.1527
     12 C         142.0569  136.1868  156.4883 C.ar    1  UNL1        0.0293
     13 C         141.3834  136.4188  155.1682 C.ar    1  UNL1        0.0822
     14 C         141.8785  134.9708  155.3558 C.ar    1  UNL1        0.1468
     15 F         141.5128  134.2265  154.1059 F       1  UNL1       -0.2039
     16 C         142.5914  134.2622  156.4693 C.ar    1  UNL1        0.0608
     17 C         142.9570  135.0065  157.7192 C.ar    1  UNL1        0.1611
     18 F         143.6699  134.2979  158.8327 F       1  UNL1       -0.2027
     19 C         140.6706  137.1273  154.0547 C.2     1  UNL1        0.2483
     20 O         140.5363  136.0011  153.0731 O.2     1  UNL1       -0.2701
     21 N         140.0044  138.2270  153.2822 N.am    1  UNL1       -0.2968
     22 C         139.4652  139.5852  152.9437 C.3     1  UNL1        0.1181
     23 C         139.1180  141.0382  153.0802 C.ar    1  UNL1        0.0166
     24 C         138.4052  141.7467  151.9668 C.ar    1  UNL1        0.0962
     25 N         138.0580  143.1995  152.1032 N.ar    1  UNL1       -0.2426
     26 C         138.4237  143.9438  153.3532 C.ar    1  UNL1        0.0989
     27 C         139.1365  143.2353  154.4666 C.ar    1  UNL1        0.0205
     28 C         139.4837  141.7825  154.3301 C.ar    1  UNL1        0.0005
     29 C         139.5047  144.2810  155.9067 C.ar    1  UNL1        0.0222
     30 C         138.8385  145.3807  155.1341 C.ar    1  UNL1        0.0222
     31 C         138.7253  146.7530  155.7290 C.ar    1  UNL1        0.0989
     32 N         139.2782  147.0255  157.0965 N.ar    1  UNL1       -0.2423
     33 C         139.9444  145.9258  157.8691 C.ar    1  UNL1        0.0989
     34 C         140.6142  146.0561  159.4029 C.ar    1  UNL1        0.0222
     35 C         141.2931  145.0090  160.2353 C.ar    1  UNL1        0.0207
     36 C         141.4440  143.6130  159.7077 C.ar    1  UNL1        0.0829
     37 N         140.7312  144.3216  158.5942 N.ar    1  UNL1       -0.2438
     38 C         140.0577  144.5535  157.2741 C.ar    1  UNL1        0.0989
     39 H         143.5777  137.8648  160.8180 H       1  UNL1        0.1739
     40 H         139.7644  137.7385  152.4618 H       1  UNL1        0.1501
     41 C         144.7087  139.1298  164.2158 C.3     1  UNL1        0.2543
     42 O         144.2157  138.8751  162.8222 O.3     1  UNL1       -0.4553
@<TRIPOS>BOND
     1    41    42    1
     2    42     1    1
     3     1     2   ar
     4     2     3   ar
     5     3     4   ar
     6     4     5   ar
     7     5     6   ar
     8     6     7    1
     9     7     8    1
    10     8     9    2
    11     8    10    2
    12     8    11    1
    13    11    12   ar
    14    12    13   ar
    15    13    14   ar
    16    14    15    1
    17    14    16   ar
    18    16    17   ar
    19    17    18    1
    20    13    19    1
    21    19    20    2
    22    19    21   am
    23    21    22    1
    24    22    23    1
    25    23    24   ar
    26    24    25   ar
    27    25    26   ar
    28    26    27   ar
    29    27    28   ar
    30    27    29    1
    31    29    30   ar
    32    30    31   ar
    33    31    32   ar
    34    32    33   ar
    35    33    34   ar
    36    34    35   ar
    37    35    36   ar
    38    36    37   ar
    39    37    38   ar
    40     6     1   ar
    41    17    11   ar
    42    28    23   ar
    43    38    29   ar
    44    36     4    1
    45    38    33   ar
    46     7    39    1
    47    21    40    1
@<TRIPOS>MOLECULE
*****
 42 47 0 0 0
SMALL
GASTEIGER

@<TRIPOS>ATOM
      1 C         139.3109  142.7112  153.7319 C.ar    1  UNL1        0.2400
      2 N         138.9731  144.1099  154.1556 N.ar    1  UNL1       -0.2090
      3 C         139.2632  144.5599  155.5568 C.ar    1  UNL1        0.1036
      4 C         139.8845  143.8648  156.7846 C.ar    1  UNL1        0.0383
      5 C         139.8026  142.9784  155.5774 C.ar    1  UNL1        0.0236
      6 C         139.9388  141.7625  154.7096 C.ar    1  UNL1        0.1179
      7 N         140.2767  140.3637  154.2860 N.pl3   1  UNL1       -0.2104
      8 S         140.7754  138.9509  154.3577 S.O2    1  UNL1        0.0759
      9 O         140.8394  137.8302  153.3627 O.2     1  UNL1       -0.1499
     10 O         140.2266  139.3197  153.0112 O.2     1  UNL1       -0.1499
     11 C         141.3748  137.6944  154.9160 C.ar    1  UNL1        0.1527
     12 C         142.0027  136.7457  155.8936 C.ar    1  UNL1        0.0293
     13 C         142.5833  136.2193  157.1726 C.ar    1  UNL1        0.0822
     14 C         142.5737  135.1813  156.0327 C.ar    1  UNL1        0.1468
     15 F         143.1732  133.9247  156.5910 F       1  UNL1       -0.2039
     16 C         142.1105  135.2219  154.6065 C.ar    1  UNL1        0.0608
     17 C         141.5110  136.4785  154.0482 C.ar    1  UNL1        0.1611
     18 F         141.0477  136.5191  152.6222 F       1  UNL1       -0.2027
     19 C         143.0466  136.1786  158.5987 C.2     1  UNL1        0.2483
     20 O         143.5453  134.7658  158.6704 O.2     1  UNL1       -0.2701
     21 N         143.3366  136.6286  159.9999 N.am    1  UNL1       -0.2968
     22 C         143.4185  137.5150  161.2071 C.3     1  UNL1        0.1181
     23 C         143.2823  138.7309  162.0750 C.ar    1  UNL1        0.0166
     24 C         143.7456  138.6903  163.5010 C.ar    1  UNL1        0.0962
     25 N         143.6094  139.9061  164.3688 N.ar    1  UNL1       -0.2426
     26 C         143.0099  141.1627  163.8104 C.ar    1  UNL1        0.0989
     27 C         142.5467  141.2034  162.3844 C.ar    1  UNL1        0.0205
     28 C         142.6829  139.9875  161.5166 C.ar    1  UNL1        0.0005
     29 C         141.8463  142.7991  161.8685 C.ar    1  UNL1        0.0222
     30 C         142.1364  143.2491  163.2697 C.ar    1  UNL1        0.0222
     31 C         141.7986  144.6478  163.6933 C.ar    1  UNL1        0.0989
     32 N         141.1707  145.5965  162.7157 N.ar    1  UNL1       -0.2423
     33 C         140.8806  145.1465  161.3145 C.ar    1  UNL1        0.0989
     34 C         140.1854  146.0725  160.0991 C.ar    1  UNL1        0.0222
     35 C         139.8657  145.6961  158.6827 C.ar    1  UNL1        0.0207
     36 C         140.1746  144.3148  158.1858 C.ar    1  UNL1        0.0829
     37 N         140.6378  144.2742  159.6120 N.ar    1  UNL1       -0.2438
     38 C         141.2184  143.7477  160.8909 C.ar    1  UNL1        0.0989
     39 H         139.9726  140.3904  153.3500 H       1  UNL1        0.1739
     40 H         143.7301  135.8038  160.3663 H       1  UNL1        0.1501
     41 C         137.6646  141.7241  151.9812 C.3     1  UNL1        0.2543
     42 O         139.0209  142.2612  152.3308 O.3     1  UNL1       -0.4553
@<TRIPOS>BOND
     1    41    42    1
     2    42     1    1
     3     1     2   ar
     4     2     3   ar
     5     3     4   ar
     6     4     5   ar
     7     5     6   ar
     8     6     7    1
     9     7     8    1
    10     8     9    2
    11     8    10    2
    12     8    11    1
    13    11    12   ar
    14    12    13   ar
    15    13    14   ar
    16    14    15    1
    17    14    16   ar
    18    16    17   ar
    19    17    18    1
    20    13    19    1
    21    19    20    2
    22    19    21   am
    23    21    22    1
    24    22    23    1
    25    23    24   ar
    26    24    25   ar
    27    25    26   ar
    28    26    27   ar
    29    27    28   ar
    30    27    29    1
    31    29    30   ar
    32    30    31   ar
    33    31    32   ar
    34    32    33   ar
    35    33    34   ar
    36    34    35   ar
    37    35    36   ar
    38    36    37   ar
    39    37    38   ar
    40     6     1   ar
    41    17    11   ar
    42    28    23   ar
    43    38    29   ar
    44    36     4    1
    45    38    33   ar
    46     7    39    1
    47    21    40    1
@<TRIPOS>MOLECULE
*****
 42 47 0 0 0
SMALL
GASTEIGER

@<TRIPOS>ATOM
      1 C         142.9328  138.8515  154.3486 C.ar    1  UNL1        0.2400
      2 N         143.3842  137.6106  155.0600 N.ar    1  UNL1       -0.2090
      3 C         143.3289  137.5424  156.5574 C.ar    1  UNL1        0.1036
      4 C         142.8764  138.5355  157.6464 C.ar    1  UNL1        0.0383
      5 C         142.7392  139.0763  156.2540 C.ar    1  UNL1        0.0236
      6 C         142.4260  140.0243  155.1347 C.ar    1  UNL1        0.1179
      7 N         141.9745  141.2653  154.4232 N.pl3   1  UNL1       -0.2104
      8 S         141.4392  142.6495  154.2056 S.O2    1  UNL1        0.0759
      9 O         141.1815  143.4723  152.9781 O.2     1  UNL1       -0.1499
     10 O         141.7895  141.9408  152.9308 O.2     1  UNL1       -0.1499
     11 C         140.8848  144.0101  154.5081 C.ar    1  UNL1        0.1527
     12 C         140.3780  145.1828  155.2940 C.ar    1  UNL1        0.0293
     13 C         139.9799  146.0263  156.4688 C.ar    1  UNL1        0.0822
     14 C         139.7758  146.7312  155.1130 C.ar    1  UNL1        0.1468
     15 F         139.2214  148.0918  155.4154 F       1  UNL1       -0.2039
     16 C         140.0171  146.3187  153.6910 C.ar    1  UNL1        0.0608
     17 C         140.5715  144.9582  153.3886 C.ar    1  UNL1        0.1611
     18 F         140.8128  144.5457  151.9668 F       1  UNL1       -0.2027
     19 C         139.7387  146.4388  157.8907 C.2     1  UNL1        0.2483
     20 O         139.2035  147.8231  157.6731 O.2     1  UNL1       -0.2701
     21 N         139.6834  146.3706  159.3881 N.am    1  UNL1       -0.2968
     22 C         139.8206  145.8298  160.7804 C.3     1  UNL1        0.1181
     23 C         140.1338  144.8818  161.8999 C.ar    1  UNL1        0.0166
     24 C         139.8926  145.2943  163.3217 C.ar    1  UNL1        0.0962
     25 N         140.2058  144.3462  164.4411 N.ar    1  UNL1       -0.2426
     26 C         140.7603  142.9857  164.1387 C.ar    1  UNL1        0.0989
     27 C         141.0015  142.5732  162.7169 C.ar    1  UNL1        0.0205
     28 C         140.6883  143.5212  161.5975 C.ar    1  UNL1        0.0005
     29 C         141.6750  140.8960  162.5265 C.ar    1  UNL1        0.0222
     30 C         141.6196  140.8278  164.0239 C.ar    1  UNL1        0.0222
     31 C         142.0711  139.5867  164.7354 C.ar    1  UNL1        0.0989
     32 N         142.5779  138.4140  163.9493 N.ar    1  UNL1       -0.2423
     33 C         142.6333  138.4823  162.4519 C.ar    1  UNL1        0.0989
     34 C         143.1694  137.2692  161.4227 C.ar    1  UNL1        0.0222
     35 C         143.2544  137.2623  159.9251 C.ar    1  UNL1        0.0207
     36 C         142.8211  138.4673  159.1438 C.ar    1  UNL1        0.0829
     37 N         142.5798  138.8797  160.5657 N.ar    1  UNL1       -0.2438
     38 C         142.1818  139.7233  161.7404 C.ar    1  UNL1        0.0989
     39 H         142.1328  140.9946  153.4900 H       1  UNL1        0.1739
     40 H         139.3194  147.2636  159.5866 H       1  UNL1        0.1501
     41 C         142.1614  137.9782  152.0265 C.3     1  UNL1        0.2543
     42 O         142.9881  138.9198  152.8512 O.3     1  UNL1       -0.4553
@<TRIPOS>BOND
     1    41    42    1
     2    42     1    1
     3     1     2   ar
     4     2     3   ar
     5     3     4   ar
     6     4     5   ar
     7     5     6   ar
     8     6     7    1
     9     7     8    1
    10     8     9    2
    11     8    10    2
    12     8    11    1
    13    11    12   ar
    14    12    13   ar
    15    13    14   ar
    16    14    15    1
    17    14    16   ar
    18    16    17   ar
    19    17    18    1
    20    13    19    1
    21    19    20    2
    22    19    21   am
    23    21    22    1
    24    22    23    1
    25    23    24   ar
    26    24    25   ar
    27    25    26   ar
    28    26    27   ar
    29    27    28   ar
    30    27    29    1
    31    29    30   ar
    32    30    31   ar
    33    31    32   ar
    34    32    33   ar
    35    33    34   ar
    36    34    35   ar
    37    35    36   ar
    38    36    37   ar
    39    37    38   ar
    40     6     1   ar
    41    17    11   ar
    42    28    23   ar
    43    38    29   ar
    44    36     4    1
    45    38    33   ar
    46     7    39    1
    47    21    40    1
@<TRIPOS>MOLECULE
*****
 42 47 0 0 0
SMALL
GASTEIGER

@<TRIPOS>ATOM
      1 C         143.8545  140.4933  162.2633 C.ar    1  UNL1        0.2400
      2 N         144.3972  139.1264  162.5578 N.ar    1  UNL1       -0.2090
      3 C         144.1789  138.0068  161.5838 C.ar    1  UNL1        0.1036
      4 C         143.4622  137.9130  160.2220 C.ar    1  UNL1        0.0383
      5 C         143.4099  139.2839  160.8286 C.ar    1  UNL1        0.0236
      6 C         143.0933  140.7406  160.9945 C.ar    1  UNL1        0.1179
      7 N         142.5504  142.1076  160.6999 N.pl3   1  UNL1       -0.2104
      8 S         141.8469  143.2198  159.9802 S.O2    1  UNL1        0.0759
      9 O         141.6157  144.6674  160.2980 O.2     1  UNL1       -0.1499
     10 O         142.4431  143.6431  161.2900 O.2     1  UNL1       -0.1499
     11 C         141.0676  143.9432  158.9222 C.ar    1  UNL1        0.1527
     12 C         140.3065  144.1905  157.6536 C.ar    1  UNL1        0.0293
     13 C         139.6552  143.9319  156.3273 C.ar    1  UNL1        0.0822
     14 C         139.5089  145.3900  156.8062 C.ar    1  UNL1        0.1468
     15 F         138.7296  146.1134  155.7482 F       1  UNL1       -0.2039
     16 C         139.9716  146.1234  158.0302 C.ar    1  UNL1        0.0608
     17 C         140.7510  145.4000  159.0882 C.ar    1  UNL1        0.1611
     18 F         141.2136  146.1334  160.3122 F       1  UNL1       -0.2027
     19 C         139.1926  143.1985  155.1033 C.2     1  UNL1        0.2483
     20 O         138.4891  144.3107  154.3836 O.2     1  UNL1       -0.2701
     21 N         138.9742  142.0789  154.1293 N.am    1  UNL1       -0.2968
     22 C         139.0265  140.7080  153.5227 C.3     1  UNL1        0.1181
     23 C         139.3432  139.2512  153.3567 C.ar    1  UNL1        0.0166
     24 C         138.8805  138.5179  152.1328 C.ar    1  UNL1        0.0962
     25 N         139.1972  137.0611  151.9668 N.ar    1  UNL1       -0.2426
     26 C         139.9765  136.3377  153.0248 C.ar    1  UNL1        0.0989
     27 C         140.4392  137.0711  154.2487 C.ar    1  UNL1        0.0205
     28 C         140.1225  138.5278  154.4147 C.ar    1  UNL1        0.0005
     29 C         141.3688  136.0486  155.4290 C.ar    1  UNL1        0.0222
     30 C         141.1504  134.9290  154.4550 C.ar    1  UNL1        0.0222
     31 C         141.6933  133.5620  154.7497 C.ar    1  UNL1        0.0989
     32 N         142.4544  133.3148  156.0183 N.ar    1  UNL1       -0.2423
     33 C         142.6728  134.4344  156.9923 C.ar    1  UNL1        0.0989
     34 C         143.4969  134.3334  158.4514 C.ar    1  UNL1        0.0222
     35 C         143.7555  135.4013  159.4726 C.ar    1  UNL1        0.0207
     36 C         143.2439  136.7934  159.2480 C.ar    1  UNL1        0.0829
     37 N         142.7812  136.0599  158.0240 N.ar    1  UNL1       -0.2438
     38 C         142.1300  135.8014  156.6977 C.ar    1  UNL1        0.0989
     39 H         142.8541  142.5889  161.5032 H       1  UNL1        0.1739
     40 H         138.4627  142.5537  153.4349 H       1  UNL1        0.1501
     41 C         145.4601  141.9413  163.7038 C.3     1  UNL1        0.2543
     42 O         144.0728  141.6130  163.2372 O.3     1  UNL1       -0.4553
@<TRIPOS>BOND
     1    41    42    1
     2    42     1    1
     3     1     2   ar
     4     2     3   ar
     5     3     4   ar
     6     4     5   ar
     7     5     6   ar
     8     6     7    1
     9     7     8    1
    10     8     9    2
    11     8    10    2
    12     8    11    1
    13    11    12   ar
    14    12    13   ar
    15    13    14   ar
    16    14    15    1
    17    14    16   ar
    18    16    17   ar
    19    17    18    1
    20    13    19    1
    21    19    20    2
    22    19    21   am
    23    21    22    1
    24    22    23    1
    25    23    24   ar
    26    24    25   ar
    27    25    26   ar
    28    26    27   ar
    29    27    28   ar
    30    27    29    1
    31    29    30   ar
    32    30    31   ar
    33    31    32   ar
    34    32    33   ar
    35    33    34   ar
    36    34    35   ar
    37    35    36   ar
    38    36    37   ar
    39    37    38   ar
    40     6     1   ar
    41    17    11   ar
    42    28    23   ar
    43    38    29   ar
    44    36     4    1
    45    38    33   ar
    46     7    39    1
    47    21    40    1
@<TRIPOS>MOLECULE
*****
 42 47 0 0 0
SMALL
GASTEIGER

@<TRIPOS>ATOM
      1 C         143.0849  136.2792  157.2227 C.ar    1  UNL1        0.2400
      2 N         143.3804  135.6031  158.5287 N.ar    1  UNL1       -0.2090
      3 C         143.1909  136.3463  159.8177 C.ar    1  UNL1        0.1036
      4 C         142.7204  137.7748  160.1569 C.ar    1  UNL1        0.0383
      5 C         142.7444  137.4903  158.6843 C.ar    1  UNL1        0.0236
      6 C         142.5999  137.6986  157.2059 C.ar    1  UNL1        0.1179
      7 N         142.3044  138.3748  155.8999 N.pl3   1  UNL1       -0.2104
      8 S         141.8935  139.4372  154.9240 S.O2    1  UNL1        0.0759
      9 O         141.8043  139.4810  153.4272 O.2     1  UNL1       -0.1499
     10 O         142.2995  138.1514  154.2666 O.2     1  UNL1       -0.1499
     11 C         141.4168  140.7576  154.3957 C.ar    1  UNL1        0.1527
     12 C         140.9318  142.1769  154.3788 C.ar    1  UNL1        0.0293
     13 C         140.4970  143.5239  154.8754 C.ar    1  UNL1        0.0822
     14 C         140.4635  143.3986  153.3392 C.ar    1  UNL1        0.1468
     15 F         139.9868  144.7191  152.8109 F       1  UNL1       -0.2039
     16 C         140.7957  142.2865  152.3890 C.ar    1  UNL1        0.0608
     17 C         141.2724  140.9660  152.9172 C.ar    1  UNL1        0.1611
     18 F         141.6046  139.8538  151.9671 F       1  UNL1       -0.2027
     19 C         140.1648  144.6360  155.8256 C.2     1  UNL1        0.2483
     20 O         139.7539  145.6984  154.8496 O.2     1  UNL1       -0.2701
     21 N         139.9752  145.3792  157.1146 N.am    1  UNL1       -0.2968
     22 C         139.9513  145.6638  158.5872 C.3     1  UNL1        0.1181
     23 C         140.0957  145.4555  160.0657 C.ar    1  UNL1        0.0166
     24 C         139.7635  146.5676  161.0158 C.ar    1  UNL1        0.0962
     25 N         139.9080  146.3592  162.4942 N.ar    1  UNL1       -0.2426
     26 C         140.3847  145.0387  163.0224 C.ar    1  UNL1        0.0989
     27 C         140.7169  143.9266  162.0723 C.ar    1  UNL1        0.0205
     28 C         140.5724  144.1350  160.5939 C.ar    1  UNL1        0.0005
     29 C         141.2788  142.3964  162.8759 C.ar    1  UNL1        0.0222
     30 C         141.0892  143.1396  164.1649 C.ar    1  UNL1        0.0222
     31 C         141.3847  142.4635  165.4709 C.ar    1  UNL1        0.0989
     32 N         141.8697  141.0442  165.4877 N.ar    1  UNL1       -0.2423
     33 C         142.0593  140.3010  164.1986 C.ar    1  UNL1        0.0989
     34 C         142.5915  138.7172  164.0357 C.ar    1  UNL1        0.0222
     35 C         142.8050  137.9099  162.7895 C.ar    1  UNL1        0.0207
     36 C         142.5309  138.5180  161.4459 C.ar    1  UNL1        0.0829
     37 N         142.1986  139.6302  162.3961 N.ar    1  UNL1       -0.2438
     38 C         141.7638  140.9771  162.8926 C.ar    1  UNL1        0.0989
     39 H         142.5224  137.6449  155.2763 H       1  UNL1        0.1739
     40 H         139.6624  146.2459  156.7679 H       1  UNL1        0.1501
     41 C         143.6352  134.0802  155.9533 C.3     1  UNL1        0.2543
     42 O         143.2744  135.5361  155.9336 O.3     1  UNL1       -0.4553
@<TRIPOS>BOND
     1    41    42    1
     2    42     1    1
     3     1     2   ar
     4     2     3   ar
     5     3     4   ar
     6     4     5   ar
     7     5     6   ar
     8     6     7    1
     9     7     8    1
    10     8     9    2
    11     8    10    2
    12     8    11    1
    13    11    12   ar
    14    12    13   ar
    15    13    14   ar
    16    14    15    1
    17    14    16   ar
    18    16    17   ar
    19    17    18    1
    20    13    19    1
    21    19    20    2
    22    19    21   am
    23    21    22    1
    24    22    23    1
    25    23    24   ar
    26    24    25   ar
    27    25    26   ar
    28    26    27   ar
    29    27    28   ar
    30    27    29    1
    31    29    30   ar
    32    30    31   ar
    33    31    32   ar
    34    32    33   ar
    35    33    34   ar
    36    34    35   ar
    37    35    36   ar
    38    36    37   ar
    39    37    38   ar
    40     6     1   ar
    41    17    11   ar
    42    28    23   ar
    43    38    29   ar
    44    36     4    1
    45    38    33   ar
    46     7    39    1
    47    21    40    1
@<TRIPOS>MOLECULE
*****
 42 47 0 0 0
SMALL
GASTEIGER

@<TRIPOS>ATOM
      1 C         141.8272  139.9502  162.9595 C.ar    1  UNL1        0.2400
      2 N         141.4114  141.2274  163.6273 N.ar    1  UNL1       -0.2090
      3 C         141.0092  142.4108  162.7981 C.ar    1  UNL1        0.1036
      4 C         140.9104  142.6547  161.2790 C.ar    1  UNL1        0.0383
      5 C         141.3732  141.2719  161.6307 C.ar    1  UNL1        0.0236
      6 C         141.8406  139.8566  161.4624 C.ar    1  UNL1        0.1179
      7 N         142.2564  138.5794  160.7945 N.pl3   1  UNL1       -0.2104
      8 S         142.5703  137.5945  159.7077 S.O2    1  UNL1        0.0759
      9 O         143.0426  136.1708  159.7136 O.2     1  UNL1       -0.1499
     10 O         142.7702  137.0406  161.0873 O.2     1  UNL1       -0.1499
     11 C         142.7445  137.0206  158.3328 C.ar    1  UNL1        0.1527
     12 C         142.7580  136.9269  156.8358 C.ar    1  UNL1        0.0293
     13 C         142.6091  137.3248  155.3972 C.ar    1  UNL1        0.0822
     14 C         143.0929  135.8728  155.5830 C.ar    1  UNL1        0.1468
     15 F         143.2671  135.2989  154.2082 F       1  UNL1       -0.2039
     16 C         143.3861  135.0313  156.7897 C.ar    1  UNL1        0.0608
     17 C         143.2119  135.6052  158.1646 C.ar    1  UNL1        0.1611
     18 F         143.5052  134.7638  159.3712 F       1  UNL1       -0.2027
     19 C         142.3159  138.1662  154.1906 C.2     1  UNL1        0.2483
     20 O         142.6298  137.1813  153.1037 O.2     1  UNL1       -0.2701
     21 N         141.9136  139.3497  153.3614 N.am    1  UNL1       -0.2968
     22 C         141.4508  140.7325  153.0097 C.3     1  UNL1        0.1181
     23 C         140.9834  142.1479  153.1779 C.ar    1  UNL1        0.0166
     24 C         140.6901  142.9893  151.9713 C.ar    1  UNL1        0.0962
     25 N         140.2227  144.4046  152.1395 N.ar    1  UNL1       -0.2426
     26 C         140.0485  144.9785  153.5144 C.ar    1  UNL1        0.0989
     27 C         140.3417  144.1371  154.7211 C.ar    1  UNL1        0.0205
     28 C         140.8092  142.7218  154.5528 C.ar    1  UNL1        0.0005
     29 C         140.0795  144.9839  156.3076 C.ar    1  UNL1        0.0222
     30 C         139.6773  146.1674  155.4784 C.ar    1  UNL1        0.0222
     31 C         139.2615  147.4446  156.1462 C.ar    1  UNL1        0.0989
     32 N         139.2481  147.5381  157.6432 N.ar    1  UNL1       -0.2423
     33 C         139.6503  146.3547  158.4724 C.ar    1  UNL1        0.0989
     34 C         139.6926  146.2866  160.1493 C.ar    1  UNL1        0.0222
     35 C         140.0809  145.1474  161.0445 C.ar    1  UNL1        0.0207
     36 C         140.5082  143.8382  160.4498 C.ar    1  UNL1        0.0829
     37 N         140.2149  144.6797  159.2432 N.ar    1  UNL1       -0.2438
     38 C         140.0661  145.0775  157.8046 C.ar    1  UNL1        0.0989
     39 H         142.4489  138.0271  161.5865 H       1  UNL1        0.1739
     40 H         142.0279  138.9730  152.4590 H       1  UNL1        0.1501
     41 C         143.3669  138.8831  164.7595 C.3     1  UNL1        0.2543
     42 O         142.2294  138.7667  163.7886 O.3     1  UNL1       -0.4553
@<TRIPOS>BOND
     1    41    42    1
     2    42     1    1
     3     1     2   ar
     4     2     3   ar
     5     3     4   ar
     6     4     5   ar
     7     5     6   ar
     8     6     7    1
     9     7     8    1
    10     8     9    2
    11     8    10    2
    12     8    11    1
    13    11    12   ar
    14    12    13   ar
    15    13    14   ar
    16    14    15    1
    17    14    16   ar
    18    16    17   ar
    19    17    18    1
    20    13    19    1
    21    19    20    2
    22    19    21   am
    23    21    22    1
    24    22    23    1
    25    23    24   ar
    26    24    25   ar
    27    25    26   ar
    28    26    27   ar
    29    27    28   ar
    30    27    29    1
    31    29    30   ar
    32    30    31   ar
    33    31    32   ar
    34    32    33   ar
    35    33    34   ar
    36    34    35   ar
    37    35    36   ar
    38    36    37   ar
    39    37    38   ar
    40     6     1   ar
    41    17    11   ar
    42    28    23   ar
    43    38    29   ar
    44    36     4    1
    45    38    33   ar
    46     7    39    1
    47    21    40    1
