@<TRIPOS>MOLECULE
*****
 38 43 0 0 0
SMALL
GASTEIGER

@<TRIPOS>ATOM
      1 C         138.5312  141.8905  164.4721 C.3     1  UNL1        0.0955
      2 C         137.9679  141.9020  163.0818 C.3     1  UNL1        0.0287
      3 C         137.9883  143.1663  162.2748 C.3     1  UNL1        0.0193
      4 C         138.5720  144.4190  162.8580 C.3     1  UNL1        0.0697
      5 C         139.1353  144.4074  164.2481 C.3     1  UNL1        0.0193
      6 C         139.1149  143.1431  165.0552 C.3     1  UNL1        0.0287
      7 C         138.5831  143.7503  163.3385 C.3     1  UNL1        0.1561
      8 O         138.5646  142.6072  164.0682 O.3     1  UNL1       -0.3571
      9 N         138.5925  145.6832  162.0510 N.3     1  UNL1       -0.2976
     10 H         138.4398  146.4519  162.7039 H       1  UNL1        0.1232
     11 C         139.8050  146.0368  161.2418 C.3     1  UNL1        0.0689
     12 C         140.4496  145.0037  160.3659 C.3     1  UNL1        0.0218
     13 C         141.8772  144.6072  160.5996 C.3     1  UNL1        0.0301
     14 C         142.2865  144.0208  161.9182 C.ar    1  UNL1        0.0075
     15 C         143.1484  144.8129  162.8561 C.ar    1  UNL1        0.0276
     16 C         143.5577  144.2265  164.1747 C.ar    1  UNL1        0.1400
     17 F         144.4196  145.0185  165.1126 F       1  UNL1       -0.2042
     18 C         143.1050  142.8479  164.5552 C.ar    1  UNL1        0.0319
     19 C         142.2432  142.0559  163.6173 C.ar    1  UNL1        0.0316
     20 C         141.8339  142.6423  162.2987 C.ar    1  UNL1        0.1363
     21 F         140.9720  141.8502  161.3608 F       1  UNL1       -0.2045
     22 C         138.5107  140.6262  165.2791 C.3     1  UNL1        0.0604
     23 O         139.0133  141.1234  170.3567 O.2     1  UNL1       -0.2670
     24 C         140.1897  140.4476  169.7167 C.ar    1  UNL1        0.2611
     25 C         141.3468  139.9991  170.5592 C.ar    1  UNL1        0.0623
     26 C         142.5231  139.3234  169.9192 C.ar    1  UNL1        0.0254
     27 C         142.5424  139.0962  168.4367 C.ar    1  UNL1        0.0972
     28 N         143.5698  138.4563  167.5393 N.ar    1  UNL1       -0.2400
     29 C         143.4481  138.2982  166.0527 C.ar    1  UNL1        0.1282
     30 C         142.2251  138.7987  165.3428 C.ar    1  UNL1        0.1588
     31 F         142.1034  138.6406  163.8562 F       1  UNL1       -0.2027
     32 C         141.1239  139.4574  166.1197 C.ar    1  UNL1        0.0500
     33 C         141.3852  139.5447  167.5942 C.ar    1  UNL1        0.0806
     34 N         140.2089  140.2204  168.2342 N.ar    1  UNL1       -0.2915
     35 C         139.2206  140.5507  167.1552 C.3     1  UNL1        0.1402
     36 C         139.7861  140.0791  165.8484 C.3     1  UNL1        0.1335
     37 O         140.0850  139.7219  164.4226 O.3     1  UNL1       -0.3806
     38 H         139.3484  140.0032  163.8575 H       1  UNL1        0.2108
@<TRIPOS>BOND
     1    23    24    2
     2    24    25   ar
     3    25    26   ar
     4    26    27   ar
     5    27    28   ar
     6    28    29   ar
     7    29    30   ar
     8    30    31    1
     9    30    32   ar
    10    32    33   ar
    11    33    34   ar
    12    34    35    1
    13    35    36    1
    14    36    37    1
    15    36    22    1
    16    22     1    1
    17     1     2    1
    18     2     3    1
    19     3     4    1
    20     4     9    1
    21     9    11    1
    22    11    12    1
    23    12    13    1
    24    13    14    1
    25    14    15   ar
    26    15    16   ar
    27    16    17    1
    28    16    18   ar
    29    18    19   ar
    30    19    20   ar
    31    20    21    1
    32     4     5    1
    33     5     6    1
    34     4     7    1
    35     7     8    1
    36    34    24   ar
    37     6     1    1
    38    33    27   ar
    39     8     1    1
    40    36    32    1
    41    20    14   ar
    42    37    38    1
    43     9    10    1
@<TRIPOS>MOLECULE
*****
 38 43 0 0 0
SMALL
GASTEIGER

@<TRIPOS>ATOM
      1 C         142.3098  141.3659  163.7626 C.3     1  UNL1        0.0955
      2 C         141.6323  141.1793  162.4373 C.3     1  UNL1        0.0287
      3 C         141.5361  142.3268  161.4760 C.3     1  UNL1        0.0193
      4 C         142.1172  143.6609  161.8400 C.3     1  UNL1        0.0697
      5 C         142.7947  143.8474  163.1652 C.3     1  UNL1        0.0193
      6 C         142.8910  142.7000  164.1265 C.3     1  UNL1        0.0287
      7 C         142.1945  143.0617  162.3995 C.3     1  UNL1        0.1561
      8 O         142.2815  142.0241  163.2687 O.3     1  UNL1       -0.3571
      9 N         142.0210  144.8083  160.8787 N.3     1  UNL1       -0.2976
     10 H         142.3099  144.4538  159.9670 H       1  UNL1        0.1232
     11 C         140.7100  145.5084  160.6754 C.3     1  UNL1        0.0689
     12 C         139.9747  146.0798  161.8514 C.3     1  UNL1        0.0218
     13 C         138.6262  145.5406  162.2269 C.3     1  UNL1        0.0301
     14 C         138.5080  144.1769  162.8403 C.ar    1  UNL1        0.0075
     15 C         137.9884  143.0302  162.0249 C.ar    1  UNL1        0.0276
     16 C         137.8702  141.6665  162.6383 C.ar    1  UNL1        0.1400
     17 F         137.3506  140.5197  161.8229 F       1  UNL1       -0.2042
     18 C         138.2716  141.4496  164.0673 C.ar    1  UNL1        0.0319
     19 C         138.7911  142.5963  164.8827 C.ar    1  UNL1        0.0316
     20 C         138.9094  143.9600  164.2692 C.ar    1  UNL1        0.1363
     21 F         139.4290  145.1068  165.0847 F       1  UNL1       -0.2045
     22 C         142.4061  140.2184  164.7238 C.3     1  UNL1        0.0604
     23 O         142.2418  142.4828  169.3204 O.2     1  UNL1       -0.2670
     24 C         141.0806  141.5643  169.0799 C.ar    1  UNL1        0.2611
     25 C         140.0296  141.3918  170.1361 C.ar    1  UNL1        0.0623
     26 C         138.8683  140.4733  169.8956 C.ar    1  UNL1        0.0254
     27 C         138.7580  139.7274  168.5989 C.ar    1  UNL1        0.0972
     28 N         137.7227  138.7572  168.0916 N.ar    1  UNL1       -0.2400
     29 C         137.7465  138.0813  166.7528 C.ar    1  UNL1        0.1282
     30 C         138.8685  138.3533  165.7952 C.ar    1  UNL1        0.1588
     31 F         138.8924  137.6774  164.4564 F       1  UNL1       -0.2027
     32 C         139.9667  139.3014  166.1764 C.ar    1  UNL1        0.0500
     33 C         139.8090  139.9000  167.5427 C.ar    1  UNL1        0.0806
     34 N         140.9703  140.8185  167.7832 N.ar    1  UNL1       -0.2915
     35 C         141.8457  140.7875  166.5655 C.3     1  UNL1        0.1402
     36 C         141.2254  139.8499  165.5724 C.3     1  UNL1        0.1335
     37 O         140.8520  138.9893  164.4020 O.3     1  UNL1       -0.3806
     38 H         141.5192  139.0849  163.7044 H       1  UNL1        0.2108
@<TRIPOS>BOND
     1    23    24    2
     2    24    25   ar
     3    25    26   ar
     4    26    27   ar
     5    27    28   ar
     6    28    29   ar
     7    29    30   ar
     8    30    31    1
     9    30    32   ar
    10    32    33   ar
    11    33    34   ar
    12    34    35    1
    13    35    36    1
    14    36    37    1
    15    36    22    1
    16    22     1    1
    17     1     2    1
    18     2     3    1
    19     3     4    1
    20     4     9    1
    21     9    11    1
    22    11    12    1
    23    12    13    1
    24    13    14    1
    25    14    15   ar
    26    15    16   ar
    27    16    17    1
    28    16    18   ar
    29    18    19   ar
    30    19    20   ar
    31    20    21    1
    32     4     5    1
    33     5     6    1
    34     4     7    1
    35     7     8    1
    36    34    24   ar
    37     6     1    1
    38    33    27   ar
    39     8     1    1
    40    36    32    1
    41    20    14   ar
    42    37    38    1
    43     9    10    1
@<TRIPOS>MOLECULE
*****
 38 43 0 0 0
SMALL
GASTEIGER

@<TRIPOS>ATOM
      1 C         142.6313  141.5887  164.2327 C.3     1  UNL1        0.0955
      2 C         142.0783  141.2525  162.8794 C.3     1  UNL1        0.0287
      3 C         141.9266  142.3264  161.8432 C.3     1  UNL1        0.0193
      4 C         142.3277  143.7365  162.1603 C.3     1  UNL1        0.0697
      5 C         142.8807  144.0727  163.5135 C.3     1  UNL1        0.0193
      6 C         143.0324  142.9989  164.5497 C.3     1  UNL1        0.0287
      7 C         142.4294  143.1820  162.7605 C.3     1  UNL1        0.1561
      8 O         142.5666  142.2110  163.6974 O.3     1  UNL1       -0.3571
      9 N         142.1760  144.8105  161.1241 N.3     1  UNL1       -0.2976
     10 H         142.6184  144.4632  160.2731 H       1  UNL1        0.1232
     11 C         140.8089  145.2906  160.7364 C.3     1  UNL1        0.0689
     12 C         140.0268  146.1630  161.6730 C.3     1  UNL1        0.0218
     13 C         138.7571  145.6539  162.2883 C.3     1  UNL1        0.0301
     14 C         138.7882  144.4545  163.1886 C.ar    1  UNL1        0.0075
     15 C         139.3986  144.5580  164.5549 C.ar    1  UNL1        0.0276
     16 C         139.4298  143.3586  165.4552 C.ar    1  UNL1        0.1400
     17 F         140.0402  143.4621  166.8215 F       1  UNL1       -0.2042
     18 C         138.8505  142.0558  164.9891 C.ar    1  UNL1        0.0319
     19 C         138.2402  141.9524  163.6229 C.ar    1  UNL1        0.0316
     20 C         138.2090  143.1518  162.7226 C.ar    1  UNL1        0.1363
     21 F         137.5986  143.0483  161.3563 F       1  UNL1       -0.2045
     22 C         142.7830  140.5148  165.2689 C.3     1  UNL1        0.0604
     23 O         144.2599  142.7808  169.6240 O.2     1  UNL1       -0.2670
     24 C         142.9077  142.1400  169.7284 C.ar    1  UNL1        0.2611
     25 C         142.1429  142.2083  171.0169 C.ar    1  UNL1        0.0623
     26 C         140.7906  141.5675  171.1213 C.ar    1  UNL1        0.0254
     27 C         140.2033  140.8584  169.9372 C.ar    1  UNL1        0.0972
     28 N         138.8923  140.1381  169.7558 N.ar    1  UNL1       -0.2400
     29 C         138.4360  139.4673  168.4941 C.ar    1  UNL1        0.1282
     30 C         139.3137  139.4808  167.2778 C.ar    1  UNL1        0.1588
     31 F         138.8574  138.8101  166.0162 F       1  UNL1       -0.2027
     32 C         140.6478  140.1651  167.3232 C.ar    1  UNL1        0.0500
     33 C         140.9682  140.7900  168.6487 C.ar    1  UNL1        0.0806
     34 N         142.3204  141.4308  168.5443 N.ar    1  UNL1       -0.2915
     35 C         142.8357  141.2019  167.1543 C.3     1  UNL1        0.1402
     36 C         141.8020  140.4196  166.3996 C.3     1  UNL1        0.1335
     37 O         140.9734  139.6572  165.4086 O.3     1  UNL1       -0.3806
     38 H         141.4493  139.6001  164.5653 H       1  UNL1        0.2108
@<TRIPOS>BOND
     1    23    24    2
     2    24    25   ar
     3    25    26   ar
     4    26    27   ar
     5    27    28   ar
     6    28    29   ar
     7    29    30   ar
     8    30    31    1
     9    30    32   ar
    10    32    33   ar
    11    33    34   ar
    12    34    35    1
    13    35    36    1
    14    36    37    1
    15    36    22    1
    16    22     1    1
    17     1     2    1
    18     2     3    1
    19     3     4    1
    20     4     9    1
    21     9    11    1
    22    11    12    1
    23    12    13    1
    24    13    14    1
    25    14    15   ar
    26    15    16   ar
    27    16    17    1
    28    16    18   ar
    29    18    19   ar
    30    19    20   ar
    31    20    21    1
    32     4     5    1
    33     5     6    1
    34     4     7    1
    35     7     8    1
    36    34    24   ar
    37     6     1    1
    38    33    27   ar
    39     8     1    1
    40    36    32    1
    41    20    14   ar
    42    37    38    1
    43     9    10    1
@<TRIPOS>MOLECULE
*****
 38 43 0 0 0
SMALL
GASTEIGER

@<TRIPOS>ATOM
      1 C         138.3933  141.7153  164.7877 C.3     1  UNL1        0.0955
      2 C         139.4187  142.6260  165.3956 C.3     1  UNL1        0.0287
      3 C         140.3222  142.1197  166.4807 C.3     1  UNL1        0.0193
      4 C         140.2004  140.7029  166.9579 C.3     1  UNL1        0.0697
      5 C         139.1751  139.7923  166.3500 C.3     1  UNL1        0.0193
      6 C         138.2715  140.2985  165.2649 C.3     1  UNL1        0.0287
      7 C         139.6830  140.9351  166.3608 C.3     1  UNL1        0.1561
      8 O         138.8661  141.3928  165.3797 O.3     1  UNL1       -0.3571
      9 N         141.1039  140.1967  168.0430 N.3     1  UNL1       -0.2976
     10 H         140.7346  139.2919  168.3355 H       1  UNL1        0.1232
     11 C         142.5658  140.0001  167.7707 C.3     1  UNL1        0.0689
     12 C         143.0548  138.7008  167.2026 C.3     1  UNL1        0.0218
     13 C         143.4864  138.6245  165.7681 C.3     1  UNL1        0.0301
     14 C         142.5229  138.9806  164.6750 C.ar    1  UNL1        0.0075
     15 C         142.5599  140.3476  164.0585 C.ar    1  UNL1        0.0276
     16 C         141.5964  140.7037  162.9654 C.ar    1  UNL1        0.1400
     17 F         141.6334  142.0706  162.3489 F       1  UNL1       -0.2042
     18 C         140.5958  139.6928  162.4890 C.ar    1  UNL1        0.0319
     19 C         140.5588  138.3259  163.1055 C.ar    1  UNL1        0.0316
     20 C         141.5223  137.9698  164.1986 C.ar    1  UNL1        0.1363
     21 F         141.4852  136.6029  164.8151 F       1  UNL1       -0.2045
     22 C         137.4898  142.2216  163.7026 C.3     1  UNL1        0.0604
     23 O         140.3045  146.1476  161.9862 O.2     1  UNL1       -0.2670
     24 C         140.0588  145.1030  160.9382 C.ar    1  UNL1        0.2611
     25 C         140.6202  145.2782  159.5584 C.ar    1  UNL1        0.0623
     26 C         140.3744  144.2336  158.5104 C.ar    1  UNL1        0.0254
     27 C         139.5672  143.0136  158.8423 C.ar    1  UNL1        0.0972
     28 N         139.1679  141.8247  158.0071 N.ar    1  UNL1       -0.2400
     29 C         138.3460  140.6640  158.4837 C.ar    1  UNL1        0.1282
     30 C         137.8512  140.6264  159.8992 C.ar    1  UNL1        0.1588
     31 F         137.0294  139.4656  160.3758 F       1  UNL1       -0.2027
     32 C         138.1783  141.7495  160.8382 C.ar    1  UNL1        0.0500
     33 C         139.0058  142.8384  160.2221 C.ar    1  UNL1        0.0806
     34 N         139.2515  143.8831  161.2701 N.ar    1  UNL1       -0.2915
     35 C         138.5759  143.4398  162.5338 C.3     1  UNL1        0.1402
     36 C         137.9126  142.1212  162.2669 C.3     1  UNL1        0.1335
     37 O         137.1609  140.8235  162.3001 O.3     1  UNL1       -0.3806
     38 H         136.7878  140.6885  163.1853 H       1  UNL1        0.2108
@<TRIPOS>BOND
     1    23    24    2
     2    24    25   ar
     3    25    26   ar
     4    26    27   ar
     5    27    28   ar
     6    28    29   ar
     7    29    30   ar
     8    30    31    1
     9    30    32   ar
    10    32    33   ar
    11    33    34   ar
    12    34    35    1
    13    35    36    1
    14    36    37    1
    15    36    22    1
    16    22     1    1
    17     1     2    1
    18     2     3    1
    19     3     4    1
    20     4     9    1
    21     9    11    1
    22    11    12    1
    23    12    13    1
    24    13    14    1
    25    14    15   ar
    26    15    16   ar
    27    16    17    1
    28    16    18   ar
    29    18    19   ar
    30    19    20   ar
    31    20    21    1
    32     4     5    1
    33     5     6    1
    34     4     7    1
    35     7     8    1
    36    34    24   ar
    37     6     1    1
    38    33    27   ar
    39     8     1    1
    40    36    32    1
    41    20    14   ar
    42    37    38    1
    43     9    10    1
@<TRIPOS>MOLECULE
*****
 38 43 0 0 0
SMALL
GASTEIGER

@<TRIPOS>ATOM
      1 C         142.9530  141.3008  162.8130 C.3     1  UNL1        0.0955
      2 C         141.6877  141.2102  162.0122 C.3     1  UNL1        0.0287
      3 C         141.4541  142.1535  160.8695 C.3     1  UNL1        0.0193
      4 C         142.4858  143.1873  160.5275 C.3     1  UNL1        0.0697
      5 C         143.7509  143.2779  161.3282 C.3     1  UNL1        0.0193
      6 C         143.9846  142.3346  162.4709 C.3     1  UNL1        0.0287
      7 C         142.6584  142.6923  161.1626 C.3     1  UNL1        0.1561
      8 O         142.8696  141.8394  162.1958 O.3     1  UNL1       -0.3571
      9 N         142.2522  144.1306  159.3848 N.3     1  UNL1       -0.2976
     10 H         141.7232  143.6154  158.6811 H       1  UNL1        0.1232
     11 C         141.5238  145.4215  159.6149 C.3     1  UNL1        0.0689
     12 C         140.1391  145.4089  160.1916 C.3     1  UNL1        0.0218
     13 C         139.8909  145.9737  161.5588 C.3     1  UNL1        0.0301
     14 C         139.8233  145.0603  162.7468 C.ar    1  UNL1        0.0075
     15 C         138.5337  144.3786  163.0963 C.ar    1  UNL1        0.0276
     16 C         138.4661  143.4652  164.2842 C.ar    1  UNL1        0.1400
     17 F         137.1765  142.7835  164.6338 F       1  UNL1       -0.2042
     18 C         139.6883  143.2336  165.1226 C.ar    1  UNL1        0.0319
     19 C         140.9778  143.9154  164.7731 C.ar    1  UNL1        0.0316
     20 C         141.0454  144.8287  163.5851 C.ar    1  UNL1        0.1363
     21 F         142.3350  145.5105  163.2356 F       1  UNL1       -0.2045
     22 C         143.1866  140.3576  163.9556 C.3     1  UNL1        0.0604
     23 O         138.7942  137.7167  164.0805 O.2     1  UNL1       -0.2670
     24 C         139.0425  138.4970  165.3373 C.ar    1  UNL1        0.2611
     25 C         138.0493  138.4463  166.4601 C.ar    1  UNL1        0.0623
     26 C         138.2976  139.2266  167.7169 C.ar    1  UNL1        0.0254
     27 C         139.5392  140.0575  167.8509 C.ar    1  UNL1        0.0972
     28 N         140.0406  140.9271  168.9746 N.ar    1  UNL1       -0.2400
     29 C         141.3203  141.7095  168.9642 C.ar    1  UNL1        0.1282
     30 C         142.2182  141.6626  167.7635 C.ar    1  UNL1        0.1588
     31 F         143.4979  142.4450  167.7531 F       1  UNL1       -0.2027
     32 C         141.8363  140.8334  166.5733 C.ar    1  UNL1        0.0500
     33 C         140.5324  140.1082  166.7280 C.ar    1  UNL1        0.0806
     34 N         140.2841  139.3279  165.4712 N.ar    1  UNL1       -0.2915
     35 C         141.4345  139.5710  164.5398 C.3     1  UNL1        0.1402
     36 C         142.3939  140.5014  165.2209 C.3     1  UNL1        0.1335
     37 O         143.5189  141.4018  165.6376 O.3     1  UNL1       -0.3806
     38 H         144.1753  141.4500  164.9250 H       1  UNL1        0.2108
@<TRIPOS>BOND
     1    23    24    2
     2    24    25   ar
     3    25    26   ar
     4    26    27   ar
     5    27    28   ar
     6    28    29   ar
     7    29    30   ar
     8    30    31    1
     9    30    32   ar
    10    32    33   ar
    11    33    34   ar
    12    34    35    1
    13    35    36    1
    14    36    37    1
    15    36    22    1
    16    22     1    1
    17     1     2    1
    18     2     3    1
    19     3     4    1
    20     4     9    1
    21     9    11    1
    22    11    12    1
    23    12    13    1
    24    13    14    1
    25    14    15   ar
    26    15    16   ar
    27    16    17    1
    28    16    18   ar
    29    18    19   ar
    30    19    20   ar
    31    20    21    1
    32     4     5    1
    33     5     6    1
    34     4     7    1
    35     7     8    1
    36    34    24   ar
    37     6     1    1
    38    33    27   ar
    39     8     1    1
    40    36    32    1
    41    20    14   ar
    42    37    38    1
    43     9    10    1
@<TRIPOS>MOLECULE
*****
 38 43 0 0 0
SMALL
GASTEIGER

@<TRIPOS>ATOM
      1 C         138.7705  139.0103  164.1568 C.3     1  UNL1        0.0955
      2 C         138.0586  140.2942  163.8483 C.3     1  UNL1        0.0287
      3 C         137.5456  140.5531  162.4627 C.3     1  UNL1        0.0193
      4 C         137.7445  139.5282  161.3857 C.3     1  UNL1        0.0697
      5 C         138.4563  138.2444  161.6942 C.3     1  UNL1        0.0193
      6 C         138.9693  137.9854  163.0798 C.3     1  UNL1        0.0287
      7 C         138.0432  139.3415  162.1300 C.3     1  UNL1        0.1561
      8 O         138.5071  139.1074  163.3828 O.3     1  UNL1       -0.3571
      9 N         137.2314  139.7871  160.0001 N.3     1  UNL1       -0.2976
     10 H         136.4126  140.3875  160.0967 H       1  UNL1        0.1232
     11 C         138.1220  140.4302  158.9787 C.3     1  UNL1        0.0689
     12 C         138.5571  141.8550  159.1538 C.3     1  UNL1        0.0218
     13 C         139.9501  142.1623  159.6176 C.3     1  UNL1        0.0301
     14 C         140.1649  143.0070  160.8384 C.ar    1  UNL1        0.0075
     15 C         139.8853  144.4799  160.7901 C.ar    1  UNL1        0.0276
     16 C         140.1001  145.3245  162.0109 C.ar    1  UNL1        0.1400
     17 F         139.8205  146.7974  161.9626 F       1  UNL1       -0.2042
     18 C         140.5945  144.6961  163.2801 C.ar    1  UNL1        0.0319
     19 C         140.8741  143.2232  163.3284 C.ar    1  UNL1        0.0316
     20 C         140.6593  142.3786  162.1075 C.ar    1  UNL1        0.1363
     21 F         140.9389  140.9057  162.1559 F       1  UNL1       -0.2045
     22 C         139.2835  138.7515  165.5424 C.3     1  UNL1        0.0604
     23 O         138.0903  140.0901  170.3452 O.2     1  UNL1       -0.2670
     24 C         139.3384  140.7558  169.8463 C.ar    1  UNL1        0.2611
     25 C         140.0912  141.7006  170.7354 C.ar    1  UNL1        0.0623
     26 C         141.3394  142.3664  170.2365 C.ar    1  UNL1        0.0254
     27 C         141.8347  142.0873  168.8484 C.ar    1  UNL1        0.0972
     28 N         143.0341  142.6020  168.0955 N.ar    1  UNL1       -0.2400
     29 C         143.4059  142.2273  166.6915 C.ar    1  UNL1        0.1282
     30 C         142.5520  141.2642  165.9211 C.ar    1  UNL1        0.1588
     31 F         142.9239  140.8895  164.5171 F       1  UNL1       -0.2027
     32 C         141.3262  140.6760  166.5548 C.ar    1  UNL1        0.0500
     33 C         141.0819  141.1424  167.9593 C.ar    1  UNL1        0.0806
     34 N         139.8338  140.4767  168.4583 N.ar    1  UNL1       -0.2915
     35 C         139.3067  139.5989  167.3620 C.3     1  UNL1        0.1402
     36 C         140.2291  139.7221  166.1856 C.3     1  UNL1        0.1335
     37 O         140.9539  139.6424  164.8747 O.3     1  UNL1       -0.3806
     38 H         140.4839  139.0353  164.2818 H       1  UNL1        0.2108
@<TRIPOS>BOND
     1    23    24    2
     2    24    25   ar
     3    25    26   ar
     4    26    27   ar
     5    27    28   ar
     6    28    29   ar
     7    29    30   ar
     8    30    31    1
     9    30    32   ar
    10    32    33   ar
    11    33    34   ar
    12    34    35    1
    13    35    36    1
    14    36    37    1
    15    36    22    1
    16    22     1    1
    17     1     2    1
    18     2     3    1
    19     3     4    1
    20     4     9    1
    21     9    11    1
    22    11    12    1
    23    12    13    1
    24    13    14    1
    25    14    15   ar
    26    15    16   ar
    27    16    17    1
    28    16    18   ar
    29    18    19   ar
    30    19    20   ar
    31    20    21    1
    32     4     5    1
    33     5     6    1
    34     4     7    1
    35     7     8    1
    36    34    24   ar
    37     6     1    1
    38    33    27   ar
    39     8     1    1
    40    36    32    1
    41    20    14   ar
    42    37    38    1
    43     9    10    1
@<TRIPOS>MOLECULE
*****
 38 43 0 0 0
SMALL
GASTEIGER

@<TRIPOS>ATOM
      1 C         143.0969  142.6685  164.1840 C.3     1  UNL1        0.0955
      2 C         143.3605  142.0982  162.8218 C.3     1  UNL1        0.0287
      3 C         143.0289  142.8981  161.5969 C.3     1  UNL1        0.0193
      4 C         142.4338  144.2681  161.7341 C.3     1  UNL1        0.0697
      5 C         142.1702  144.8383  163.0963 C.3     1  UNL1        0.0193
      6 C         142.5017  144.0385  164.3212 C.3     1  UNL1        0.0287
      7 C         142.5988  143.8675  162.4345 C.3     1  UNL1        0.1561
      8 O         142.8986  143.1443  163.5420 O.3     1  UNL1       -0.3571
      9 N         142.1023  145.0680  160.5093 N.3     1  UNL1       -0.2976
     10 H         142.9884  145.3022  160.0618 H       1  UNL1        0.1232
     11 C         141.2220  144.4811  159.4460 C.3     1  UNL1        0.0689
     12 C         139.7511  144.3221  159.6934 C.3     1  UNL1        0.0218
     13 C         139.2104  143.0121  160.1847 C.3     1  UNL1        0.0301
     14 C         138.7129  142.8874  161.5943 C.ar    1  UNL1        0.0075
     15 C         138.8376  144.0459  162.5390 C.ar    1  UNL1        0.0276
     16 C         138.3401  143.9211  163.9486 C.ar    1  UNL1        0.1400
     17 F         138.4648  145.0796  164.8932 F       1  UNL1       -0.2042
     18 C         137.7180  142.6378  164.4135 C.ar    1  UNL1        0.0319
     19 C         137.5934  141.4793  163.4689 C.ar    1  UNL1        0.0316
     20 C         138.0909  141.6041  162.0593 C.ar    1  UNL1        0.1363
     21 F         137.9662  140.4456  161.1147 F       1  UNL1       -0.2045
     22 C         143.4284  141.8686  165.4089 C.3     1  UNL1        0.0604
     23 O         143.8244  143.2178  170.3389 O.2     1  UNL1       -0.2670
     24 C         142.6111  142.3819  170.0577 C.ar    1  UNL1        0.2611
     25 C         141.6692  142.0290  171.1705 C.ar    1  UNL1        0.0623
     26 C         140.4558  141.1931  170.8893 C.ar    1  UNL1        0.0254
     27 C         140.1844  140.7101  169.4954 C.ar    1  UNL1        0.0972
     28 N         139.0668  139.8720  168.9305 N.ar    1  UNL1       -0.2400
     29 C         138.9270  139.4634  167.4941 C.ar    1  UNL1        0.1282
     30 C         139.9534  139.8939  166.4885 C.ar    1  UNL1        0.1588
     31 F         139.8136  139.4852  165.0521 F       1  UNL1       -0.2027
     32 C         141.1197  140.7331  166.9194 C.ar    1  UNL1        0.0500
     33 C         141.1264  141.0629  168.3827 C.ar    1  UNL1        0.0806
     34 N         142.3397  141.8988  168.6639 N.ar    1  UNL1       -0.2915
     35 C         143.0829  142.0856  167.3743 C.3     1  UNL1        0.1402
     36 C         142.3288  141.3651  166.2962 C.3     1  UNL1        0.1335
     37 O         141.8047  140.7499  165.0326 O.3     1  UNL1       -0.3806
     38 H         142.3994  140.9654  164.2972 H       1  UNL1        0.2108
@<TRIPOS>BOND
     1    23    24    2
     2    24    25   ar
     3    25    26   ar
     4    26    27   ar
     5    27    28   ar
     6    28    29   ar
     7    29    30   ar
     8    30    31    1
     9    30    32   ar
    10    32    33   ar
    11    33    34   ar
    12    34    35    1
    13    35    36    1
    14    36    37    1
    15    36    22    1
    16    22     1    1
    17     1     2    1
    18     2     3    1
    19     3     4    1
    20     4     9    1
    21     9    11    1
    22    11    12    1
    23    12    13    1
    24    13    14    1
    25    14    15   ar
    26    15    16   ar
    27    16    17    1
    28    16    18   ar
    29    18    19   ar
    30    19    20   ar
    31    20    21    1
    32     4     5    1
    33     5     6    1
    34     4     7    1
    35     7     8    1
    36    34    24   ar
    37     6     1    1
    38    33    27   ar
    39     8     1    1
    40    36    32    1
    41    20    14   ar
    42    37    38    1
    43     9    10    1
@<TRIPOS>MOLECULE
*****
 38 43 0 0 0
SMALL
GASTEIGER

@<TRIPOS>ATOM
      1 C         138.8477  142.4290  165.0633 C.3     1  UNL1        0.0955
      2 C         139.8453  143.1245  165.9416 C.3     1  UNL1        0.0287
      3 C         140.6327  142.3403  166.9491 C.3     1  UNL1        0.0193
      4 C         140.4227  140.8607  167.0783 C.3     1  UNL1        0.0697
      5 C         139.4251  140.1653  166.2001 C.3     1  UNL1        0.0193
      6 C         138.6376  140.9494  165.1926 C.3     1  UNL1        0.0287
      7 C         139.9677  141.2481  166.5117 C.3     1  UNL1        0.1561
      8 O         139.2557  141.9571  165.6008 O.3     1  UNL1       -0.3571
      9 N         141.2101  140.0766  168.0858 N.3     1  UNL1       -0.2976
     10 H         140.6853  139.2213  168.2687 H       1  UNL1        0.1232
     11 C         142.6190  139.6630  167.7793 C.3     1  UNL1        0.0689
     12 C         142.9074  138.8199  166.5726 C.3     1  UNL1        0.0218
     13 C         143.7299  139.3759  165.4483 C.3     1  UNL1        0.0301
     14 C         143.3085  140.6438  164.7664 C.ar    1  UNL1        0.0075
     15 C         143.9437  141.9478  165.1485 C.ar    1  UNL1        0.0276
     16 C         143.5223  143.2156  164.4666 C.ar    1  UNL1        0.1400
     17 F         144.1575  144.5196  164.8487 F       1  UNL1       -0.2042
     18 C         142.4655  143.1793  163.4026 C.ar    1  UNL1        0.0319
     19 C         141.8303  141.8754  163.0206 C.ar    1  UNL1        0.0316
     20 C         142.2518  140.6075  163.7025 C.ar    1  UNL1        0.1363
     21 F         141.6165  139.3035  163.3204 F       1  UNL1       -0.2045
     22 C         138.0602  143.2131  164.0558 C.3     1  UNL1        0.0604
     23 O         137.2218  139.6086  160.5080 O.2     1  UNL1       -0.2670
     24 C         138.0191  140.7672  159.9865 C.ar    1  UNL1        0.2611
     25 C         138.4791  140.7791  158.5588 C.ar    1  UNL1        0.0623
     26 C         139.2764  141.9376  158.0373 C.ar    1  UNL1        0.0254
     27 C         139.6138  143.0843  158.9435 C.ar    1  UNL1        0.0972
     28 N         140.3848  144.3555  158.6983 N.ar    1  UNL1       -0.2400
     29 C         140.6444  145.4253  159.7171 C.ar    1  UNL1        0.1282
     30 C         140.1185  145.2743  161.1138 C.ar    1  UNL1        0.1588
     31 F         140.3782  146.3441  162.1326 F       1  UNL1       -0.2027
     32 C         139.3330  144.0536  161.4915 C.ar    1  UNL1        0.0500
     33 C         139.1539  143.0725  160.3711 C.ar    1  UNL1        0.0806
     34 N         138.3565  141.9139  160.8926 N.ar    1  UNL1       -0.2915
     35 C         138.0429  142.1790  162.3353 C.3     1  UNL1        0.1402
     36 C         138.6463  143.5014  162.7055 C.3     1  UNL1        0.1335
     37 O         139.1273  144.7636  163.3579 O.3     1  UNL1       -0.3806
     38 H         138.8408  144.7780  164.2845 H       1  UNL1        0.2108
@<TRIPOS>BOND
     1    23    24    2
     2    24    25   ar
     3    25    26   ar
     4    26    27   ar
     5    27    28   ar
     6    28    29   ar
     7    29    30   ar
     8    30    31    1
     9    30    32   ar
    10    32    33   ar
    11    33    34   ar
    12    34    35    1
    13    35    36    1
    14    36    37    1
    15    36    22    1
    16    22     1    1
    17     1     2    1
    18     2     3    1
    19     3     4    1
    20     4     9    1
    21     9    11    1
    22    11    12    1
    23    12    13    1
    24    13    14    1
    25    14    15   ar
    26    15    16   ar
    27    16    17    1
    28    16    18   ar
    29    18    19   ar
    30    19    20   ar
    31    20    21    1
    32     4     5    1
    33     5     6    1
    34     4     7    1
    35     7     8    1
    36    34    24   ar
    37     6     1    1
    38    33    27   ar
    39     8     1    1
    40    36    32    1
    41    20    14   ar
    42    37    38    1
    43     9    10    1
@<TRIPOS>MOLECULE
*****
 38 43 0 0 0
SMALL
GASTEIGER

@<TRIPOS>ATOM
      1 C         143.0395  142.6815  164.1612 C.3     1  UNL1        0.0955
      2 C         143.4057  142.2010  162.7882 C.3     1  UNL1        0.0287
      3 C         143.0445  143.0212  161.5854 C.3     1  UNL1        0.0193
      4 C         142.3171  144.3220  161.7556 C.3     1  UNL1        0.0697
      5 C         141.9509  144.8024  163.1286 C.3     1  UNL1        0.0193
      6 C         142.3121  143.9822  164.3314 C.3     1  UNL1        0.0287
      7 C         142.4938  143.9071  162.4446 C.3     1  UNL1        0.1561
      8 O         142.8204  143.1655  163.5322 O.3     1  UNL1       -0.3571
      9 N         141.9558  145.1423  160.5528 N.3     1  UNL1       -0.2976
     10 H         142.7127  145.0259  159.8790 H       1  UNL1        0.1232
     11 C         140.6764  144.8725  159.8179 C.3     1  UNL1        0.0689
     12 C         140.1543  143.4703  159.7107 C.3     1  UNL1        0.0218
     13 C         138.7451  143.1612  160.1212 C.3     1  UNL1        0.0301
     14 C         138.4135  142.9571  161.5697 C.ar    1  UNL1        0.0075
     15 C         138.6082  144.0767  162.5487 C.ar    1  UNL1        0.0276
     16 C         138.2766  143.8726  163.9973 C.ar    1  UNL1        0.1400
     17 F         138.4714  144.9923  164.9763 F       1  UNL1       -0.2042
     18 C         137.7502  142.5487  164.4668 C.ar    1  UNL1        0.0319
     19 C         137.5555  141.4292  163.4878 C.ar    1  UNL1        0.0316
     20 C         137.8871  141.6333  162.0392 C.ar    1  UNL1        0.1363
     21 F         137.6924  140.5136  161.0602 F       1  UNL1       -0.2045
     22 C         143.4008  141.8612  165.3640 C.3     1  UNL1        0.0604
     23 O         139.7700  138.6106  163.7723 O.2     1  UNL1       -0.2670
     24 C         139.5776  139.0509  165.1933 C.ar    1  UNL1        0.2611
     25 C         138.4122  138.5380  165.9862 C.ar    1  UNL1        0.0623
     26 C         138.2198  138.9783  167.4071 C.ar    1  UNL1        0.0254
     27 C         139.1929  139.9314  168.0352 C.ar    1  UNL1        0.0972
     28 N         139.2493  140.5334  169.4154 N.ar    1  UNL1       -0.2400
     29 C         140.2990  141.4858  169.9064 C.ar    1  UNL1        0.1282
     30 C         141.4109  141.9118  168.9942 C.ar    1  UNL1        0.1588
     31 F         142.4606  142.8641  169.4853 F       1  UNL1       -0.2027
     32 C         141.4731  141.3854  167.5910 C.ar    1  UNL1        0.0500
     33 C         140.3583  140.4443  167.2424 C.ar    1  UNL1        0.0806
     34 N         140.5507  140.0040  165.8214 N.ar    1  UNL1       -0.2915
     35 C         141.7844  140.6730  165.2919 C.3     1  UNL1        0.1402
     36 C         142.3545  141.5268  166.3855 C.3     1  UNL1        0.1335
     37 O         143.1433  142.4504  167.2656 O.3     1  UNL1       -0.3806
     38 H         143.9042  142.7953  166.7727 H       1  UNL1        0.2108
@<TRIPOS>BOND
     1    23    24    2
     2    24    25   ar
     3    25    26   ar
     4    26    27   ar
     5    27    28   ar
     6    28    29   ar
     7    29    30   ar
     8    30    31    1
     9    30    32   ar
    10    32    33   ar
    11    33    34   ar
    12    34    35    1
    13    35    36    1
    14    36    37    1
    15    36    22    1
    16    22     1    1
    17     1     2    1
    18     2     3    1
    19     3     4    1
    20     4     9    1
    21     9    11    1
    22    11    12    1
    23    12    13    1
    24    13    14    1
    25    14    15   ar
    26    15    16   ar
    27    16    17    1
    28    16    18   ar
    29    18    19   ar
    30    19    20   ar
    31    20    21    1
    32     4     5    1
    33     5     6    1
    34     4     7    1
    35     7     8    1
    36    34    24   ar
    37     6     1    1
    38    33    27   ar
    39     8     1    1
    40    36    32    1
    41    20    14   ar
    42    37    38    1
    43     9    10    1
