@<TRIPOS>MOLECULE
*****
 34 36 0 0 0
SMALL
GASTEIGER

@<TRIPOS>ATOM
      1 C         140.8855  139.9453  167.0159 C.ar    1  UNL1        0.1432
      2 C         140.1923  140.1993  168.3216 C.ar    1  UNL1        0.0384
      3 C         140.7967  141.1406  169.3210 C.ar    1  UNL1        0.0215
      4 C         142.0942  141.8280  169.0145 C.ar    1  UNL1        0.1061
      5 C         142.7874  141.5740  167.7088 C.ar    1  UNL1        0.0259
      6 C         142.1830  140.6326  166.7095 C.ar    1  UNL1        0.0887
      7 C         142.8762  140.3787  165.4037 C.2     1  UNL1        0.2521
      8 O         144.0232  139.4143  165.3386 O.2     1  UNL1       -0.2698
      9 N         142.4224  141.0891  164.1630 N.am    1  UNL1       -0.2725
     10 C         141.2753  142.0536  164.2282 C.3     1  UNL1        0.1151
     11 C         140.8215  142.7641  162.9875 C.3     1  UNL1        0.1124
     12 N         141.5147  142.5101  161.6817 N.pl3   1  UNL1       -0.3023
     13 C         142.6617  141.5457  161.6166 C.3     1  UNL1        0.1124
     14 C         143.1155  140.8352  162.8573 C.3     1  UNL1        0.1151
     15 C         141.0609  143.2206  160.4410 C.ar    1  UNL1        0.0758
     16 C         140.7475  142.4376  159.2005 C.ar    1  UNL1        0.0175
     17 C         140.2937  143.1481  157.9598 C.ar    1  UNL1        0.0117
     18 C         140.1532  144.6416  157.9597 C.ar    1  UNL1        0.0708
     19 C         140.4665  145.4244  159.2002 C.ar    1  UNL1        0.0412
     20 C         140.9204  144.7140  160.4409 C.ar    1  UNL1        0.1540
     21 F         141.2337  145.4969  161.6814 F       1  UNL1       -0.2028
     22 C         139.6994  145.3520  156.7190 C.1     1  UNL1        0.1005
     23 N         139.2455  146.0625  155.4784 N.1     1  UNL1       -0.1908
     24 S         142.6986  142.7693  170.0138 S.O2    1  UNL1        0.0105
     25 C         143.3030  143.7106  171.0132 C.3     1  UNL1        0.1816
     26 O         141.3974  142.8138  170.7588 O.2     1  UNL1       -0.1686
     27 O         143.9998  142.7248  169.2689 O.2     1  UNL1       -0.1686
     28 O         140.2811  139.0040  166.0166 O.3     1  UNL1       -0.4702
     29 C         138.1261  140.0464  165.0071 C.3     1  UNL1        0.0566
     30 C         138.7948  138.9753  165.8167 C.3     1  UNL1        0.2599
     31 C         137.9771  137.8755  166.4266 C.3     1  UNL1        0.4340
     32 F         137.1594  136.7757  167.0363 F       1  UNL1       -0.1664
     33 F         137.3148  138.8704  167.3330 F       1  UNL1       -0.1664
     34 F         138.6393  136.8806  165.5201 F       1  UNL1       -0.1664
@<TRIPOS>BOND
     1    29    30    1
     2    30    28    1
     3    28     1    1
     4     1     2   ar
     5     2     3   ar
     6     3     4   ar
     7     4    24    1
     8    24    25    1
     9    24    26    2
    10    24    27    2
    11     4     5   ar
    12     5     6   ar
    13     6     7    1
    14     7     8    2
    15     7     9   am
    16     9    10    1
    17    10    11    1
    18    11    12    1
    19    12    15    1
    20    15    16   ar
    21    16    17   ar
    22    17    18   ar
    23    18    22    1
    24    22    23    3
    25    18    19   ar
    26    19    20   ar
    27    20    21    1
    28    12    13    1
    29    13    14    1
    30    30    31    1
    31    31    32    1
    32    31    33    1
    33    31    34    1
    34     6     1   ar
    35    14     9    1
    36    20    15   ar
@<TRIPOS>MOLECULE
*****
 34 36 0 0 0
SMALL
GASTEIGER

@<TRIPOS>ATOM
      1 C         138.9775  140.2491  166.1996 C.ar    1  UNL1        0.1432
      2 C         139.3099  139.6005  167.5106 C.ar    1  UNL1        0.0384
      3 C         140.1641  140.3231  168.5097 C.ar    1  UNL1        0.0215
      4 C         140.6860  141.6943  168.1978 C.ar    1  UNL1        0.1061
      5 C         140.3536  142.3430  166.8868 C.ar    1  UNL1        0.0259
      6 C         139.4993  141.6204  165.8877 C.ar    1  UNL1        0.0887
      7 C         139.1669  142.2691  164.5767 C.2     1  UNL1        0.2521
      8 O         137.9073  143.0710  164.4347 O.2     1  UNL1       -0.2698
      9 N         140.0942  142.1159  163.4077 N.am    1  UNL1       -0.2725
     10 C         141.3539  141.3139  163.5497 C.3     1  UNL1        0.1151
     11 C         142.2813  141.1607  162.3807 C.3     1  UNL1        0.1124
     12 N         141.9489  141.8094  161.0696 N.pl3   1  UNL1       -0.3023
     13 C         140.6892  142.6113  160.9277 C.3     1  UNL1        0.1124
     14 C         139.7619  142.7645  162.0967 C.3     1  UNL1        0.1151
     15 C         142.8762  141.6562  159.9006 C.ar    1  UNL1        0.0758
     16 C         143.8673  142.7365  159.5828 C.ar    1  UNL1        0.0175
     17 C         144.7946  142.5832  158.4138 C.ar    1  UNL1        0.0117
     18 C         144.7308  141.3498  157.5625 C.ar    1  UNL1        0.0708
     19 C         143.7398  140.2696  157.8803 C.ar    1  UNL1        0.0412
     20 C         142.8124  140.4228  159.0494 C.ar    1  UNL1        0.1540
     21 F         141.8214  139.3426  159.3671 F       1  UNL1       -0.2028
     22 C         145.6581  141.1965  156.3935 C.1     1  UNL1        0.1005
     23 N         146.5854  141.0433  155.2245 N.1     1  UNL1       -0.1908
     24 S         141.5403  142.4169  169.1968 S.O2    1  UNL1        0.0105
     25 C         142.3945  143.1395  170.1959 C.3     1  UNL1        0.1816
     26 O         142.5237  141.2845  169.1749 O.2     1  UNL1       -0.1686
     27 O         140.5568  143.5493  169.2187 O.2     1  UNL1       -0.1686
     28 O         138.1232  139.5266  165.2006 O.3     1  UNL1       -0.4702
     29 C         138.3931  138.9298  162.6864 C.3     1  UNL1        0.0566
     30 C         138.7634  138.7036  164.1223 C.3     1  UNL1        0.2599
     31 C         139.7741  137.6544  164.4798 C.3     1  UNL1        0.4340
     32 F         140.7847  136.6052  164.8373 F       1  UNL1       -0.1664
     33 F         140.7501  138.2673  163.5198 F       1  UNL1       -0.1664
     34 F         138.7981  137.0414  165.4398 F       1  UNL1       -0.1664
@<TRIPOS>BOND
     1    29    30    1
     2    30    28    1
     3    28     1    1
     4     1     2   ar
     5     2     3   ar
     6     3     4   ar
     7     4    24    1
     8    24    25    1
     9    24    26    2
    10    24    27    2
    11     4     5   ar
    12     5     6   ar
    13     6     7    1
    14     7     8    2
    15     7     9   am
    16     9    10    1
    17    10    11    1
    18    11    12    1
    19    12    15    1
    20    15    16   ar
    21    16    17   ar
    22    17    18   ar
    23    18    22    1
    24    22    23    3
    25    18    19   ar
    26    19    20   ar
    27    20    21    1
    28    12    13    1
    29    13    14    1
    30    30    31    1
    31    31    32    1
    32    31    33    1
    33    31    34    1
    34     6     1   ar
    35    14     9    1
    36    20    15   ar
@<TRIPOS>MOLECULE
*****
 34 36 0 0 0
SMALL
GASTEIGER

@<TRIPOS>ATOM
      1 C         140.0845  141.6575  158.6455 C.ar    1  UNL1        0.1432
      2 C         141.2014  141.7510  157.6487 C.ar    1  UNL1        0.0384
      3 C         141.9290  140.5116  157.2191 C.ar    1  UNL1        0.0215
      4 C         141.5397  139.1787  157.7864 C.ar    1  UNL1        0.1061
      5 C         140.4227  139.0852  158.7832 C.ar    1  UNL1        0.0259
      6 C         139.6951  140.3246  159.2128 C.ar    1  UNL1        0.0887
      7 C         138.5782  140.2310  160.2097 C.2     1  UNL1        0.2521
      8 O         137.1862  139.9147  159.7489 O.2     1  UNL1       -0.2698
      9 N         138.8533  140.4538  161.6673 N.am    1  UNL1       -0.2725
     10 C         140.2453  140.7701  162.1281 C.3     1  UNL1        0.1151
     11 C         140.5204  140.9928  163.5857 C.3     1  UNL1        0.1124
     12 N         139.4035  140.8993  164.5826 N.pl3   1  UNL1       -0.3023
     13 C         138.0115  140.5830  164.1218 C.3     1  UNL1        0.1124
     14 C         137.7364  140.3602  162.6642 C.3     1  UNL1        0.1151
     15 C         139.6785  141.1220  166.0402 C.ar    1  UNL1        0.0758
     16 C         139.4144  140.0257  167.0294 C.ar    1  UNL1        0.0175
     17 C         139.6895  140.2484  168.4870 C.ar    1  UNL1        0.0117
     18 C         140.2287  141.5675  168.9555 C.ar    1  UNL1        0.0708
     19 C         140.4928  142.6637  167.9664 C.ar    1  UNL1        0.0412
     20 C         140.2177  142.4410  166.5087 C.ar    1  UNL1        0.1540
     21 F         140.4818  143.5373  165.5196 F       1  UNL1       -0.2028
     22 C         140.5038  141.7902  170.4132 C.1     1  UNL1        0.1005
     23 N         140.7789  142.0130  171.8708 N.1     1  UNL1       -0.1908
     24 S         142.2673  137.9393  157.3568 S.O2    1  UNL1        0.0105
     25 C         142.9949  136.7000  156.9272 C.3     1  UNL1        0.1816
     26 O         140.9560  137.2644  157.0830 O.2     1  UNL1       -0.1686
     27 O         143.5786  138.6143  157.6306 O.2     1  UNL1       -0.1686
     28 O         139.3569  142.8968  159.0751 O.3     1  UNL1       -0.4702
     29 C         140.3540  145.2513  158.6147 C.3     1  UNL1        0.0566
     30 C         140.1282  144.0951  159.5433 C.3     1  UNL1        0.2599
     31 C         140.6737  144.1372  160.9400 C.3     1  UNL1        0.4340
     32 F         141.2192  144.1793  162.3366 F       1  UNL1       -0.1664
     33 F         139.2990  143.8850  161.4845 F       1  UNL1       -0.1664
     34 F         142.0483  144.3895  160.3954 F       1  UNL1       -0.1664
@<TRIPOS>BOND
     1    29    30    1
     2    30    28    1
     3    28     1    1
     4     1     2   ar
     5     2     3   ar
     6     3     4   ar
     7     4    24    1
     8    24    25    1
     9    24    26    2
    10    24    27    2
    11     4     5   ar
    12     5     6   ar
    13     6     7    1
    14     7     8    2
    15     7     9   am
    16     9    10    1
    17    10    11    1
    18    11    12    1
    19    12    15    1
    20    15    16   ar
    21    16    17   ar
    22    17    18   ar
    23    18    22    1
    24    22    23    3
    25    18    19   ar
    26    19    20   ar
    27    20    21    1
    28    12    13    1
    29    13    14    1
    30    30    31    1
    31    31    32    1
    32    31    33    1
    33    31    34    1
    34     6     1   ar
    35    14     9    1
    36    20    15   ar
@<TRIPOS>MOLECULE
*****
 34 36 0 0 0
SMALL
GASTEIGER

@<TRIPOS>ATOM
      1 C         141.0731  140.1320  158.8869 C.ar    1  UNL1        0.1432
      2 C         142.1975  140.4422  157.9438 C.ar    1  UNL1        0.0384
      3 C         142.3900  141.8422  157.4409 C.ar    1  UNL1        0.0215
      4 C         141.4582  142.9321  157.8811 C.ar    1  UNL1        0.1061
      5 C         140.3338  142.6219  158.8243 C.ar    1  UNL1        0.0259
      6 C         140.1413  141.2219  159.3272 C.ar    1  UNL1        0.0887
      7 C         139.0169  140.9118  160.2704 C.2     1  UNL1        0.2521
      8 O         137.6929  140.4541  159.7343 O.2     1  UNL1       -0.2698
      9 N         139.2166  141.0593  161.7497 N.am    1  UNL1       -0.2725
     10 C         140.5407  141.5170  162.2858 C.3     1  UNL1        0.1151
     11 C         140.7404  141.6646  163.7651 C.3     1  UNL1        0.1124
     12 N         139.6159  141.3545  164.7083 N.pl3   1  UNL1       -0.3023
     13 C         138.2919  140.8968  164.1722 C.3     1  UNL1        0.1124
     14 C         138.0922  140.7492  162.6929 C.3     1  UNL1        0.1151
     15 C         139.8156  141.5020  166.1876 C.ar    1  UNL1        0.0758
     16 C         140.2652  142.8152  166.7564 C.ar    1  UNL1        0.0175
     17 C         140.4649  142.9628  168.2357 C.ar    1  UNL1        0.0117
     18 C         140.2150  141.7972  169.1462 C.ar    1  UNL1        0.0708
     19 C         139.7655  140.4841  168.5774 C.ar    1  UNL1        0.0412
     20 C         139.5658  140.3365  167.0981 C.ar    1  UNL1        0.1540
     21 F         139.1162  139.0233  166.5293 F       1  UNL1       -0.2028
     22 C         140.4147  141.9447  170.6255 C.1     1  UNL1        0.1005
     23 N         140.6144  142.0923  172.1048 N.1     1  UNL1       -0.1908
     24 S         141.6507  144.3321  157.3783 S.O2    1  UNL1        0.0105
     25 C         141.8432  145.7321  156.8754 C.3     1  UNL1        0.1816
     26 O         140.4938  144.1542  156.4402 O.2     1  UNL1       -0.1686
     27 O         142.8076  144.5099  158.3163 O.2     1  UNL1       -0.1686
     28 O         140.8806  138.7320  159.3898 O.3     1  UNL1       -0.4702
     29 C         142.9925  138.3871  160.8631 C.3     1  UNL1        0.0566
     30 C         141.5051  138.3082  160.6860 C.3     1  UNL1        0.2599
     31 C         140.6422  137.8054  161.8053 C.3     1  UNL1        0.4340
     32 F         139.7793  137.3027  162.9245 F       1  UNL1       -0.1664
     33 F         141.8232  137.8357  162.7295 F       1  UNL1       -0.1664
     34 F         139.4612  137.7751  160.8811 F       1  UNL1       -0.1664
@<TRIPOS>BOND
     1    29    30    1
     2    30    28    1
     3    28     1    1
     4     1     2   ar
     5     2     3   ar
     6     3     4   ar
     7     4    24    1
     8    24    25    1
     9    24    26    2
    10    24    27    2
    11     4     5   ar
    12     5     6   ar
    13     6     7    1
    14     7     8    2
    15     7     9   am
    16     9    10    1
    17    10    11    1
    18    11    12    1
    19    12    15    1
    20    15    16   ar
    21    16    17   ar
    22    17    18   ar
    23    18    22    1
    24    22    23    3
    25    18    19   ar
    26    19    20   ar
    27    20    21    1
    28    12    13    1
    29    13    14    1
    30    30    31    1
    31    31    32    1
    32    31    33    1
    33    31    34    1
    34     6     1   ar
    35    14     9    1
    36    20    15   ar
@<TRIPOS>MOLECULE
*****
 34 36 0 0 0
SMALL
GASTEIGER

@<TRIPOS>ATOM
      1 C         142.0880  140.4954  158.7878 C.ar    1  UNL1        0.1432
      2 C         141.4176  139.4350  157.9655 C.ar    1  UNL1        0.0384
      3 C         140.0357  139.6639  157.4288 C.ar    1  UNL1        0.0215
      4 C         139.3242  140.9531  157.7144 C.ar    1  UNL1        0.1061
      5 C         139.9946  142.0135  158.5367 C.ar    1  UNL1        0.0259
      6 C         141.3765  141.7846  159.0733 C.ar    1  UNL1        0.0887
      7 C         142.0469  142.8450  159.8957 C.2     1  UNL1        0.2521
      8 O         142.7714  143.9715  159.2204 O.2     1  UNL1       -0.2698
      9 N         141.9927  142.7789  161.3932 N.am    1  UNL1       -0.2725
     10 C         141.2681  141.6523  162.0685 C.3     1  UNL1        0.1151
     11 C         141.2139  141.5862  163.5660 C.3     1  UNL1        0.1124
     12 N         141.8843  142.6467  164.3883 N.pl3   1  UNL1       -0.3023
     13 C         142.6088  143.7731  163.7131 C.3     1  UNL1        0.1124
     14 C         142.6630  143.8393  162.2155 C.3     1  UNL1        0.1151
     15 C         141.8301  142.5805  165.8859 C.ar    1  UNL1        0.0758
     16 C         143.0668  142.2482  166.6672 C.ar    1  UNL1        0.0175
     17 C         143.0126  142.1821  168.1648 C.ar    1  UNL1        0.0117
     18 C         141.7217  142.4483  168.8810 C.ar    1  UNL1        0.0708
     19 C         140.4851  142.7805  168.0997 C.ar    1  UNL1        0.0412
     20 C         140.5393  142.8467  166.6022 C.ar    1  UNL1        0.1540
     21 F         139.3027  143.1789  165.8209 F       1  UNL1       -0.2028
     22 C         141.6675  142.3821  170.3786 C.1     1  UNL1        0.1005
     23 N         141.6133  142.3160  171.8761 N.1     1  UNL1       -0.1908
     24 S         137.9423  141.1820  157.1777 S.O2    1  UNL1        0.0105
     25 C         136.5604  141.4109  156.6411 C.3     1  UNL1        0.1816
     26 O         137.9467  139.8064  156.5797 O.2     1  UNL1       -0.1686
     27 O         137.9379  142.5576  157.7758 O.2     1  UNL1       -0.1686
     28 O         143.4698  140.2665  159.3244 O.3     1  UNL1       -0.4702
     29 C         143.2139  137.9278  160.4267 C.3     1  UNL1        0.0566
     30 C         143.6778  139.3526  160.4956 C.3     1  UNL1        0.2599
     31 C         144.3496  139.8636  161.7356 C.3     1  UNL1        0.4340
     32 F         145.0214  140.3745  162.9756 F       1  UNL1       -0.1664
     33 F         144.0746  138.5587  162.4223 F       1  UNL1       -0.1664
     34 F         144.6245  141.1685  161.0489 F       1  UNL1       -0.1664
@<TRIPOS>BOND
     1    29    30    1
     2    30    28    1
     3    28     1    1
     4     1     2   ar
     5     2     3   ar
     6     3     4   ar
     7     4    24    1
     8    24    25    1
     9    24    26    2
    10    24    27    2
    11     4     5   ar
    12     5     6   ar
    13     6     7    1
    14     7     8    2
    15     7     9   am
    16     9    10    1
    17    10    11    1
    18    11    12    1
    19    12    15    1
    20    15    16   ar
    21    16    17   ar
    22    17    18   ar
    23    18    22    1
    24    22    23    3
    25    18    19   ar
    26    19    20   ar
    27    20    21    1
    28    12    13    1
    29    13    14    1
    30    30    31    1
    31    31    32    1
    32    31    33    1
    33    31    34    1
    34     6     1   ar
    35    14     9    1
    36    20    15   ar
@<TRIPOS>MOLECULE
*****
 34 36 0 0 0
SMALL
GASTEIGER

@<TRIPOS>ATOM
      1 C         140.9892  139.6574  158.9130 C.ar    1  UNL1        0.1432
      2 C         140.9531  140.6444  157.7841 C.ar    1  UNL1        0.0384
      3 C         142.2144  141.3262  157.3434 C.ar    1  UNL1        0.0215
      4 C         143.5118  141.0210  158.0316 C.ar    1  UNL1        0.1061
      5 C         143.5478  140.0340  159.1605 C.ar    1  UNL1        0.0259
      6 C         142.2865  139.3522  159.6012 C.ar    1  UNL1        0.0887
      7 C         142.3226  138.3651  160.7301 C.2     1  UNL1        0.2521
      8 O         142.5803  136.9143  160.4499 O.2     1  UNL1       -0.2698
      9 N         142.1010  138.8290  162.1393 N.am    1  UNL1       -0.2725
     10 C         141.8433  140.2799  162.4195 C.3     1  UNL1        0.1151
     11 C         141.6217  140.7438  163.8286 C.3     1  UNL1        0.1124
     12 N         141.6578  139.7567  164.9576 N.pl3   1  UNL1       -0.3023
     13 C         141.9155  138.3059  164.6773 C.3     1  UNL1        0.1124
     14 C         142.1371  137.8420  163.2682 C.3     1  UNL1        0.1151
     15 C         141.4362  140.2206  166.3667 C.ar    1  UNL1        0.0758
     16 C         142.5486  140.8873  167.1205 C.ar    1  UNL1        0.0175
     17 C         142.3271  141.3512  168.5297 C.ar    1  UNL1        0.0117
     18 C         140.9931  141.1484  169.1850 C.ar    1  UNL1        0.0708
     19 C         139.8808  140.4817  168.4312 C.ar    1  UNL1        0.0412
     20 C         140.1023  140.0178  167.0221 C.ar    1  UNL1        0.1540
     21 F         138.9899  139.3511  166.2683 F       1  UNL1       -0.2028
     22 C         140.7715  141.6122  170.5942 C.1     1  UNL1        0.1005
     23 N         140.5499  142.0761  172.0034 N.1     1  UNL1       -0.1908
     24 S         144.7731  141.7028  157.5909 S.O2    1  UNL1        0.0105
     25 C         146.0344  142.3847  157.1502 C.3     1  UNL1        0.1816
     26 O         145.2670  140.4122  157.0075 O.2     1  UNL1       -0.1686
     27 O         144.2793  142.9935  158.1742 O.2     1  UNL1       -0.1686
     28 O         139.7278  138.9756  159.3537 O.3     1  UNL1       -0.4702
     29 C         138.2518  140.9551  160.1617 C.3     1  UNL1        0.0566
     30 C         138.8619  139.6062  160.4036 C.3     1  UNL1        0.2599
     31 C         138.6059  138.8880  161.6954 C.3     1  UNL1        0.4340
     32 F         138.3499  138.1698  162.9871 F       1  UNL1       -0.1664
     33 F         138.0747  140.1561  162.2952 F       1  UNL1       -0.1664
     34 F         139.1370  137.6199  161.0955 F       1  UNL1       -0.1664
@<TRIPOS>BOND
     1    29    30    1
     2    30    28    1
     3    28     1    1
     4     1     2   ar
     5     2     3   ar
     6     3     4   ar
     7     4    24    1
     8    24    25    1
     9    24    26    2
    10    24    27    2
    11     4     5   ar
    12     5     6   ar
    13     6     7    1
    14     7     8    2
    15     7     9   am
    16     9    10    1
    17    10    11    1
    18    11    12    1
    19    12    15    1
    20    15    16   ar
    21    16    17   ar
    22    17    18   ar
    23    18    22    1
    24    22    23    3
    25    18    19   ar
    26    19    20   ar
    27    20    21    1
    28    12    13    1
    29    13    14    1
    30    30    31    1
    31    31    32    1
    32    31    33    1
    33    31    34    1
    34     6     1   ar
    35    14     9    1
    36    20    15   ar
@<TRIPOS>MOLECULE
*****
 34 36 0 0 0
SMALL
GASTEIGER

@<TRIPOS>ATOM
      1 C         140.4345  139.6156  166.7408 C.ar    1  UNL1        0.1432
      2 C         139.8078  139.8966  168.0743 C.ar    1  UNL1        0.0384
      3 C         140.4826  140.8257  169.0394 C.ar    1  UNL1        0.0215
      4 C         141.7841  141.4739  168.6709 C.ar    1  UNL1        0.1061
      5 C         142.4109  141.1929  167.3375 C.ar    1  UNL1        0.0259
      6 C         141.7360  140.2638  166.3724 C.ar    1  UNL1        0.0887
      7 C         142.3629  139.9828  165.0389 C.2     1  UNL1        0.2521
      8 O         143.3394  138.8538  164.8921 O.2     1  UNL1       -0.2698
      9 N         142.0130  140.8310  163.8521 N.am    1  UNL1       -0.2725
     10 C         141.0364  141.9600  163.9990 C.3     1  UNL1        0.1151
     11 C         140.6866  142.8081  162.8122 C.3     1  UNL1        0.1124
     12 N         141.3134  142.5272  161.4787 N.pl3   1  UNL1       -0.3023
     13 C         142.2899  141.3982  161.3319 C.3     1  UNL1        0.1124
     14 C         142.6398  140.5501  162.5186 C.3     1  UNL1        0.1151
     15 C         140.9635  143.3753  160.2920 C.ar    1  UNL1        0.0758
     16 C         141.5261  144.7603  160.1680 C.ar    1  UNL1        0.0175
     17 C         141.1763  145.6084  158.9812 C.ar    1  UNL1        0.0117
     18 C         140.2639  145.0715  157.9185 C.ar    1  UNL1        0.0708
     19 C         139.7014  143.6866  158.0425 C.ar    1  UNL1        0.0412
     20 C         140.0512  142.8385  159.2293 C.ar    1  UNL1        0.1540
     21 F         139.4886  141.4534  159.3533 F       1  UNL1       -0.2028
     22 C         139.9141  145.9196  156.7318 C.1     1  UNL1        0.1005
     23 N         139.5642  146.7678  155.5451 N.1     1  UNL1       -0.1908
     24 S         142.4590  142.4030  169.6360 S.O2    1  UNL1        0.0105
     25 C         143.1338  143.3321  170.6011 C.3     1  UNL1        0.1816
     26 O         143.5682  142.6214  168.6501 O.2     1  UNL1       -0.1686
     27 O         141.3498  142.1846  170.6219 O.2     1  UNL1       -0.1686
     28 O         139.7597  138.6865  165.7758 O.3     1  UNL1       -0.4702
     29 C         138.0451  140.4697  164.9817 C.3     1  UNL1        0.0566
     30 C         138.8556  139.2365  164.7127 C.3     1  UNL1        0.2599
     31 C         138.7620  138.5533  163.3805 C.3     1  UNL1        0.4340
     32 F         138.6685  137.8701  162.0485 F       1  UNL1       -0.1664
     33 F         138.8558  139.8827  162.6921 F       1  UNL1       -0.1664
     34 F         138.6683  137.2239  164.0689 F       1  UNL1       -0.1664
@<TRIPOS>BOND
     1    29    30    1
     2    30    28    1
     3    28     1    1
     4     1     2   ar
     5     2     3   ar
     6     3     4   ar
     7     4    24    1
     8    24    25    1
     9    24    26    2
    10    24    27    2
    11     4     5   ar
    12     5     6   ar
    13     6     7    1
    14     7     8    2
    15     7     9   am
    16     9    10    1
    17    10    11    1
    18    11    12    1
    19    12    15    1
    20    15    16   ar
    21    16    17   ar
    22    17    18   ar
    23    18    22    1
    24    22    23    3
    25    18    19   ar
    26    19    20   ar
    27    20    21    1
    28    12    13    1
    29    13    14    1
    30    30    31    1
    31    31    32    1
    32    31    33    1
    33    31    34    1
    34     6     1   ar
    35    14     9    1
    36    20    15   ar
@<TRIPOS>MOLECULE
*****
 34 36 0 0 0
SMALL
GASTEIGER

@<TRIPOS>ATOM
      1 C         139.4052  139.1485  165.6291 C.ar    1  UNL1        0.1432
      2 C         138.9009  139.9536  166.7898 C.ar    1  UNL1        0.0384
      3 C         139.8693  140.5320  167.7786 C.ar    1  UNL1        0.0215
      4 C         141.3420  140.3053  167.6066 C.ar    1  UNL1        0.1061
      5 C         141.8464  139.5002  166.4458 C.ar    1  UNL1        0.0259
      6 C         140.8779  138.9218  165.4571 C.ar    1  UNL1        0.0887
      7 C         141.3823  138.1167  164.2962 C.2     1  UNL1        0.2521
      8 O         141.4899  136.6248  164.4086 O.2     1  UNL1       -0.2698
      9 N         141.7791  138.8035  163.0231 N.am    1  UNL1       -0.2725
     10 C         141.6715  140.2955  162.9108 C.3     1  UNL1        0.1151
     11 C         142.0682  140.9823  161.6377 C.3     1  UNL1        0.1124
     12 N         142.5726  140.1772  160.4769 N.pl3   1  UNL1       -0.3023
     13 C         142.6802  138.6853  160.5892 C.3     1  UNL1        0.1124
     14 C         142.2835  137.9985  161.8623 C.3     1  UNL1        0.1151
     15 C         142.9694  140.8640  159.2038 C.ar    1  UNL1        0.0758
     16 C         144.1843  141.7433  159.1731 C.ar    1  UNL1        0.0175
     17 C         144.5811  142.4301  157.9000 C.ar    1  UNL1        0.0117
     18 C         143.7629  142.2377  156.6575 C.ar    1  UNL1        0.0708
     19 C         142.5480  141.3585  156.6882 C.ar    1  UNL1        0.0412
     20 C         142.1513  140.6717  157.9613 C.ar    1  UNL1        0.1540
     21 F         140.9363  139.7924  157.9920 F       1  UNL1       -0.2028
     22 C         144.1597  142.9246  155.3844 C.1     1  UNL1        0.1005
     23 N         144.5564  143.6114  154.1113 N.1     1  UNL1       -0.1908
     24 S         142.3104  140.8837  168.5954 S.O2    1  UNL1        0.0105
     25 C         143.2789  141.4620  169.5841 C.3     1  UNL1        0.1816
     26 O         141.6940  142.2381  168.4069 O.2     1  UNL1       -0.1686
     27 O         142.9269  139.5292  168.7838 O.2     1  UNL1       -0.1686
     28 O         138.4368  138.5701  164.6403 O.3     1  UNL1       -0.4702
     29 C         137.7580  140.6669  163.2645 C.3     1  UNL1        0.0566
     30 C         138.2254  139.2425  163.3162 C.3     1  UNL1        0.2599
     31 C         138.4815  138.4905  162.0438 C.3     1  UNL1        0.4340
     32 F         138.7375  137.7386  160.7714 F       1  UNL1       -0.1664
     33 F         138.3807  137.1933  162.7901 F       1  UNL1       -0.1664
     34 F         138.5822  139.7877  161.2975 F       1  UNL1       -0.1664
@<TRIPOS>BOND
     1    29    30    1
     2    30    28    1
     3    28     1    1
     4     1     2   ar
     5     2     3   ar
     6     3     4   ar
     7     4    24    1
     8    24    25    1
     9    24    26    2
    10    24    27    2
    11     4     5   ar
    12     5     6   ar
    13     6     7    1
    14     7     8    2
    15     7     9   am
    16     9    10    1
    17    10    11    1
    18    11    12    1
    19    12    15    1
    20    15    16   ar
    21    16    17   ar
    22    17    18   ar
    23    18    22    1
    24    22    23    3
    25    18    19   ar
    26    19    20   ar
    27    20    21    1
    28    12    13    1
    29    13    14    1
    30    30    31    1
    31    31    32    1
    32    31    33    1
    33    31    34    1
    34     6     1   ar
    35    14     9    1
    36    20    15   ar
@<TRIPOS>MOLECULE
*****
 34 36 0 0 0
SMALL
GASTEIGER

@<TRIPOS>ATOM
      1 C         140.4012  139.9230  158.9447 C.ar    1  UNL1        0.1432
      2 C         139.5446  140.5747  157.9000 C.ar    1  UNL1        0.0384
      3 C         140.0134  141.8267  157.2198 C.ar    1  UNL1        0.0215
      4 C         141.3389  142.4269  157.5842 C.ar    1  UNL1        0.1061
      5 C         142.1955  141.7752  158.6288 C.ar    1  UNL1        0.0259
      6 C         141.7267  140.5232  159.3090 C.ar    1  UNL1        0.0887
      7 C         142.5834  139.8714  160.3537 C.2     1  UNL1        0.2521
      8 O         143.6851  138.9389  159.9454 O.2     1  UNL1       -0.2698
      9 N         142.3384  140.1522  161.8067 N.am    1  UNL1       -0.2725
     10 C         141.2367  141.0848  162.2150 C.3     1  UNL1        0.1151
     11 C         140.9917  141.3656  163.6680 C.3     1  UNL1        0.1124
     12 N         141.8484  140.7138  164.7127 N.pl3   1  UNL1       -0.3023
     13 C         142.9501  139.7813  164.3044 C.3     1  UNL1        0.1124
     14 C         143.1951  139.5005  162.8514 C.3     1  UNL1        0.1151
     15 C         141.6034  140.9946  166.1656 C.ar    1  UNL1        0.0758
     16 C         140.4759  140.3120  166.8817 C.ar    1  UNL1        0.0175
     17 C         140.2309  140.5928  168.3347 C.ar    1  UNL1        0.0117
     18 C         141.1134  141.5562  169.0716 C.ar    1  UNL1        0.0708
     19 C         142.2409  142.2388  168.3555 C.ar    1  UNL1        0.0412
     20 C         142.4859  141.9580  166.9025 C.ar    1  UNL1        0.1540
     21 F         143.6135  142.6407  166.1864 F       1  UNL1       -0.2028
     22 C         140.8684  141.8370  170.5245 C.1     1  UNL1        0.1005
     23 N         140.6234  142.1178  171.9775 N.1     1  UNL1       -0.1908
     24 S         141.8077  143.6789  156.9039 S.O2    1  UNL1        0.0105
     25 C         142.2765  144.9309  156.2236 C.3     1  UNL1        0.1816
     26 O         143.2317  143.2919  157.1730 O.2     1  UNL1       -0.1686
     27 O         140.3837  144.0659  156.6348 O.2     1  UNL1       -0.1686
     28 O         139.9324  138.6710  159.6249 O.3     1  UNL1       -0.4702
     29 C         137.7282  139.6079  160.6317 C.3     1  UNL1        0.0566
     30 C         138.9554  138.7550  160.7600 C.3     1  UNL1        0.2599
     31 C         139.2057  137.9860  162.0234 C.3     1  UNL1        0.4340
     32 F         139.4559  137.2172  163.2868 F       1  UNL1       -0.1664
     33 F         140.5475  137.5653  161.5016 F       1  UNL1       -0.1664
     34 F         137.8638  138.4068  162.5452 F       1  UNL1       -0.1664
@<TRIPOS>BOND
     1    29    30    1
     2    30    28    1
     3    28     1    1
     4     1     2   ar
     5     2     3   ar
     6     3     4   ar
     7     4    24    1
     8    24    25    1
     9    24    26    2
    10    24    27    2
    11     4     5   ar
    12     5     6   ar
    13     6     7    1
    14     7     8    2
    15     7     9   am
    16     9    10    1
    17    10    11    1
    18    11    12    1
    19    12    15    1
    20    15    16   ar
    21    16    17   ar
    22    17    18   ar
    23    18    22    1
    24    22    23    3
    25    18    19   ar
    26    19    20   ar
    27    20    21    1
    28    12    13    1
    29    13    14    1
    30    30    31    1
    31    31    32    1
    32    31    33    1
    33    31    34    1
    34     6     1   ar
    35    14     9    1
    36    20    15   ar
