@<TRIPOS>MOLECULE
*****
 27 30 0 0 0
SMALL
GASTEIGER

@<TRIPOS>ATOM
      1 C         142.1191  141.1021  165.6735 C.3     1  UNL1        0.0367
      2 C         141.6627  143.2802  164.3329 C.ar    1  UNL1        0.0774
      3 N         142.1259  144.6122  163.8218 N.ar    1  UNL1       -0.2442
      4 C         143.5089  145.0980  164.1401 C.ar    1  UNL1        0.0988
      5 C         144.4286  144.2519  164.9697 C.ar    1  UNL1        0.0204
      6 C         143.9653  142.9199  165.4808 C.ar    1  UNL1       -0.0012
      7 C         142.5824  142.4341  165.1624 C.ar    1  UNL1       -0.0038
      8 CL        138.4456  140.5043  161.3421 Cl      1  UNL1       -0.0822
      9 C         138.6712  141.4064  162.5191 C.ar    1  UNL1        0.0577
     10 C         137.5138  141.8227  163.3776 C.ar    1  UNL1        0.0114
     11 C         137.7394  142.7248  164.5546 C.ar    1  UNL1        0.0009
     12 C         139.1223  143.2107  164.8730 C.ar    1  UNL1        0.0015
     13 C         140.2797  142.7944  164.0145 C.ar    1  UNL1        0.0182
     14 C         140.0541  141.8923  162.8375 C.ar    1  UNL1        0.0129
     15 C         141.3257  141.0209  166.9440 C.3     1  UNL1        0.0520
     16 C         141.7819  141.7679  168.1621 C.ar    1  UNL1        0.0011
     17 C         143.1173  141.4621  168.7731 C.ar    1  UNL1       -0.0008
     18 C         143.5734  142.2091  169.9912 C.ar    1  UNL1        0.0204
     19 C         142.6942  143.2619  170.5984 C.ar    1  UNL1        0.0989
     20 N         141.3589  143.5677  169.9874 N.ar    1  UNL1       -0.2426
     21 C         140.9027  142.8207  168.7692 C.ar    1  UNL1        0.0949
     22 C         140.0761  140.1927  166.9962 C.ar    1  UNL1        0.0011
     23 C         139.5207  139.5931  165.7385 C.ar    1  UNL1       -0.0008
     24 C         138.2710  138.7649  165.7908 C.ar    1  UNL1        0.0204
     25 C         137.5769  138.5364  167.1008 C.ar    1  UNL1        0.0989
     26 N         138.1325  139.1362  168.3585 N.ar    1  UNL1       -0.2426
     27 C         139.3820  139.9643  168.3062 C.ar    1  UNL1        0.0949
@<TRIPOS>BOND
     1     8     9    1
     2     9    10   ar
     3    10    11   ar
     4    11    12   ar
     5    12    13   ar
     6    13     2    1
     7     2     3   ar
     8     3     4   ar
     9     4     5   ar
    10     5     6   ar
    11     6     7   ar
    12     7     1    1
    13     1    15    1
    14    15    16    1
    15    16    17   ar
    16    17    18   ar
    17    18    19   ar
    18    19    20   ar
    19    20    21   ar
    20    15    22    1
    21    22    23   ar
    22    23    24   ar
    23    24    25   ar
    24    25    26   ar
    25    26    27   ar
    26    13    14   ar
    27    14     9   ar
    28     7     2   ar
    29    21    16   ar
    30    27    22   ar
@<TRIPOS>MOLECULE
*****
 27 30 0 0 0
SMALL
GASTEIGER

@<TRIPOS>ATOM
      1 C         138.9993  139.9562  166.1035 C.3     1  UNL1        0.0367
      2 C         139.0626  140.5851  163.5834 C.ar    1  UNL1        0.0774
      3 N         139.0981  140.1719  162.1419 N.ar    1  UNL1       -0.2442
      4 C         139.1059  138.7164  161.7789 C.ar    1  UNL1        0.0988
      5 C         139.0782  137.6743  162.8574 C.ar    1  UNL1        0.0204
      6 C         139.0426  138.0876  164.2989 C.ar    1  UNL1       -0.0012
      7 C         139.0348  139.5429  164.6619 C.ar    1  UNL1       -0.0038
      8 CL        141.5255  145.1462  163.9444 Cl      1  UNL1       -0.0822
      9 C         140.2863  144.3210  164.1270 C.ar    1  UNL1        0.0577
     10 C         139.0392  144.9512  164.6725 C.ar    1  UNL1        0.0114
     11 C         137.7999  144.1261  164.8551 C.ar    1  UNL1        0.0009
     12 C         137.8077  142.6707  164.4920 C.ar    1  UNL1        0.0015
     13 C         139.0547  142.0405  163.9465 C.ar    1  UNL1        0.0182
     14 C         140.2940  142.8657  163.7639 C.ar    1  UNL1        0.0129
     15 C         140.2511  140.4339  166.7778 C.3     1  UNL1        0.0520
     16 C         141.5914  140.1102  166.1872 C.ar    1  UNL1        0.0011
     17 C         142.1325  138.7140  166.2753 C.ar    1  UNL1       -0.0008
     18 C         143.4727  138.3904  165.6847 C.ar    1  UNL1        0.0204
     19 C         144.2721  139.4631  165.0060 C.ar    1  UNL1        0.0989
     20 N         143.7310  140.8593  164.9179 N.ar    1  UNL1       -0.2426
     21 C         142.3906  141.1829  165.5086 C.ar    1  UNL1        0.0949
     22 C         140.1626  141.2351  168.0429 C.ar    1  UNL1        0.0011
     23 C         140.4985  142.6969  168.0298 C.ar    1  UNL1       -0.0008
     24 C         140.4100  143.4982  169.2948 C.ar    1  UNL1        0.0204
     25 C         139.9856  142.8376  170.5729 C.ar    1  UNL1        0.0989
     26 N         139.6497  141.3757  170.5859 N.ar    1  UNL1       -0.2426
     27 C         139.7382  140.5745  169.3209 C.ar    1  UNL1        0.0949
@<TRIPOS>BOND
     1     8     9    1
     2     9    10   ar
     3    10    11   ar
     4    11    12   ar
     5    12    13   ar
     6    13     2    1
     7     2     3   ar
     8     3     4   ar
     9     4     5   ar
    10     5     6   ar
    11     6     7   ar
    12     7     1    1
    13     1    15    1
    14    15    16    1
    15    16    17   ar
    16    17    18   ar
    17    18    19   ar
    18    19    20   ar
    19    20    21   ar
    20    15    22    1
    21    22    23   ar
    22    23    24   ar
    23    24    25   ar
    24    25    26   ar
    25    26    27   ar
    26    13    14   ar
    27    14     9   ar
    28     7     2   ar
    29    21    16   ar
    30    27    22   ar
@<TRIPOS>MOLECULE
*****
 27 30 0 0 0
SMALL
GASTEIGER

@<TRIPOS>ATOM
      1 C         139.0059  139.9482  166.1035 C.3     1  UNL1        0.0367
      2 C         139.0578  140.5814  163.5843 C.ar    1  UNL1        0.0774
      3 N         139.0888  140.1707  162.1420 N.ar    1  UNL1       -0.2442
      4 C         139.0991  138.7159  161.7765 C.ar    1  UNL1        0.0988
      5 C         139.0784  137.6719  162.8533 C.ar    1  UNL1        0.0204
      6 C         139.0473  138.0827  164.2957 C.ar    1  UNL1       -0.0012
      7 C         139.0370  139.5374  164.6612 C.ar    1  UNL1       -0.0038
      8 CL        141.5254  145.1359  163.9939 Cl      1  UNL1       -0.0822
      9 C         140.2813  144.3134  164.1546 C.ar    1  UNL1        0.0577
     10 C         139.0270  144.9457  164.6809 C.ar    1  UNL1        0.0114
     11 C         137.7829  144.1232  164.8416 C.ar    1  UNL1        0.0009
     12 C         137.7932  142.6684  164.4761 C.ar    1  UNL1        0.0015
     13 C         139.0475  142.0362  163.9498 C.ar    1  UNL1        0.0182
     14 C         140.2915  142.8587  163.7891 C.ar    1  UNL1        0.0129
     15 C         140.2563  140.4400  166.7704 C.3     1  UNL1        0.0520
     16 C         140.1663  141.2431  168.0340 C.ar    1  UNL1        0.0011
     17 C         140.5029  142.7047  168.0194 C.ar    1  UNL1       -0.0008
     18 C         140.4129  143.5078  169.2830 C.ar    1  UNL1        0.0204
     19 C         139.9861  142.8493  170.5614 C.ar    1  UNL1        0.0989
     20 N         139.6494  141.3876  170.5761 N.ar    1  UNL1       -0.2426
     21 C         139.7395  140.5845  169.3123 C.ar    1  UNL1        0.0949
     22 C         141.5968  140.1286  166.1735 C.ar    1  UNL1        0.0011
     23 C         142.1295  138.7271  166.2161 C.ar    1  UNL1       -0.0008
     24 C         143.4700  138.4158  165.6192 C.ar    1  UNL1        0.0204
     25 C         144.2778  139.5060  164.9797 C.ar    1  UNL1        0.0989
     26 N         143.7450  140.9076  164.9372 N.ar    1  UNL1       -0.2426
     27 C         142.4045  141.2189  165.5340 C.ar    1  UNL1        0.0949
@<TRIPOS>BOND
     1     8     9    1
     2     9    10   ar
     3    10    11   ar
     4    11    12   ar
     5    12    13   ar
     6    13     2    1
     7     2     3   ar
     8     3     4   ar
     9     4     5   ar
    10     5     6   ar
    11     6     7   ar
    12     7     1    1
    13     1    15    1
    14    15    16    1
    15    16    17   ar
    16    17    18   ar
    17    18    19   ar
    18    19    20   ar
    19    20    21   ar
    20    15    22    1
    21    22    23   ar
    22    23    24   ar
    23    24    25   ar
    24    25    26   ar
    25    26    27   ar
    26    13    14   ar
    27    14     9   ar
    28     7     2   ar
    29    21    16   ar
    30    27    22   ar
@<TRIPOS>MOLECULE
*****
 27 30 0 0 0
SMALL
GASTEIGER

@<TRIPOS>ATOM
      1 C         142.1104  141.0507  165.5475 C.3     1  UNL1        0.0367
      2 C         141.5791  143.2120  164.2071 C.ar    1  UNL1        0.0774
      3 N         141.9957  144.5596  163.6970 N.ar    1  UNL1       -0.2442
      4 C         143.3604  145.0938  164.0173 C.ar    1  UNL1        0.0988
      5 C         144.3083  144.2802  164.8476 C.ar    1  UNL1        0.0204
      6 C         143.8917  142.9325  165.3576 C.ar    1  UNL1       -0.0012
      7 C         142.5271  142.3984  165.0374 C.ar    1  UNL1       -0.0038
      8 CL        138.4622  140.3402  161.2008 Cl      1  UNL1       -0.0822
      9 C         138.6560  141.2420  162.3837 C.ar    1  UNL1        0.0577
     10 C         137.4853  141.6096  163.2464 C.ar    1  UNL1        0.0114
     11 C         137.6792  142.5113  164.4293 C.ar    1  UNL1        0.0009
     12 C         139.0437  143.0454  164.7495 C.ar    1  UNL1        0.0015
     13 C         140.2144  142.6778  163.8869 C.ar    1  UNL1        0.0182
     14 C         140.0206  141.7761  162.7040 C.ar    1  UNL1        0.0129
     15 C         141.3393  140.9395  166.8293 C.3     1  UNL1        0.0520
     16 C         140.0950  140.1037  166.8859 C.ar    1  UNL1        0.0011
     17 C         139.5757  139.4465  165.6416 C.ar    1  UNL1       -0.0008
     18 C         138.3315  138.6107  165.6982 C.ar    1  UNL1        0.0204
     19 C         137.6065  138.4321  166.9992 C.ar    1  UNL1        0.0989
     20 N         138.1258  139.0893  168.2436 N.ar    1  UNL1       -0.2426
     21 C         139.3701  139.9251  168.1869 C.ar    1  UNL1        0.0949
     22 C         141.8125  141.6641  168.0545 C.ar    1  UNL1        0.0011
     23 C         143.1183  141.2889  168.6903 C.ar    1  UNL1       -0.0008
     24 C         143.5915  142.0135  169.9155 C.ar    1  UNL1        0.0204
     25 C         142.7589  143.1133  170.5049 C.ar    1  UNL1        0.0989
     26 N         141.4531  143.4884  169.8690 N.ar    1  UNL1       -0.2426
     27 C         140.9799  142.7638  168.6439 C.ar    1  UNL1        0.0949
@<TRIPOS>BOND
     1     8     9    1
     2     9    10   ar
     3    10    11   ar
     4    11    12   ar
     5    12    13   ar
     6    13     2    1
     7     2     3   ar
     8     3     4   ar
     9     4     5   ar
    10     5     6   ar
    11     6     7   ar
    12     7     1    1
    13     1    15    1
    14    15    16    1
    15    16    17   ar
    16    17    18   ar
    17    18    19   ar
    18    19    20   ar
    19    20    21   ar
    20    15    22    1
    21    22    23   ar
    22    23    24   ar
    23    24    25   ar
    24    25    26   ar
    25    26    27   ar
    26    13    14   ar
    27    14     9   ar
    28     7     2   ar
    29    21    16   ar
    30    27    22   ar
@<TRIPOS>MOLECULE
*****
 27 30 0 0 0
SMALL
GASTEIGER

@<TRIPOS>ATOM
      1 C         139.9401  142.4914  166.6520 C.3     1  UNL1        0.0367
      2 C         141.1990  140.4533  167.6577 C.ar    1  UNL1        0.0774
      3 N         142.2073  139.8934  168.6167 N.ar    1  UNL1       -0.2442
      4 C         142.9652  140.8116  169.5291 C.ar    1  UNL1        0.0988
      5 C         142.7147  142.2898  169.4825 C.ar    1  UNL1        0.0204
      6 C         141.7063  142.8498  168.5234 C.ar    1  UNL1       -0.0012
      7 C         140.9485  141.9315  167.6110 C.ar    1  UNL1       -0.0038
      8 CL        141.1393  137.0694  163.7149 Cl      1  UNL1       -0.0822
      9 C         140.4113  137.8431  164.7739 C.ar    1  UNL1        0.0577
     10 C         138.9255  137.6985  164.9204 C.ar    1  UNL1        0.0114
     11 C         138.1975  138.4722  165.9794 C.ar    1  UNL1        0.0009
     12 C         138.9553  139.3905  166.8918 C.ar    1  UNL1        0.0015
     13 C         140.4411  139.5350  166.7452 C.ar    1  UNL1        0.0182
     14 C         141.1691  138.7613  165.6863 C.ar    1  UNL1        0.0129
     15 C         140.2747  142.6063  165.1943 C.3     1  UNL1        0.0520
     16 C         139.4014  141.9446  164.1699 C.ar    1  UNL1        0.0011
     17 C         140.0049  141.0205  163.1541 C.ar    1  UNL1       -0.0008
     18 C         139.1316  140.3588  162.1297 C.ar    1  UNL1        0.0204
     19 C         137.6547  140.6211  162.1211 C.ar    1  UNL1        0.0989
     20 N         137.0512  141.5452  163.1369 N.ar    1  UNL1       -0.2426
     21 C         137.9246  142.2070  164.1613 C.ar    1  UNL1        0.0949
     22 C         141.4827  143.3830  164.7610 C.ar    1  UNL1        0.0011
     23 C         142.8552  142.8186  164.9791 C.ar    1  UNL1       -0.0008
     24 C         144.0631  143.5953  164.5459 C.ar    1  UNL1        0.0204
     25 C         143.8985  144.9364  163.8945 C.ar    1  UNL1        0.0989
     26 N         142.5259  145.5008  163.6764 N.ar    1  UNL1       -0.2426
     27 C         141.3180  144.7242  164.1096 C.ar    1  UNL1        0.0949
@<TRIPOS>BOND
     1     8     9    1
     2     9    10   ar
     3    10    11   ar
     4    11    12   ar
     5    12    13   ar
     6    13     2    1
     7     2     3   ar
     8     3     4   ar
     9     4     5   ar
    10     5     6   ar
    11     6     7   ar
    12     7     1    1
    13     1    15    1
    14    15    16    1
    15    16    17   ar
    16    17    18   ar
    17    18    19   ar
    18    19    20   ar
    19    20    21   ar
    20    15    22    1
    21    22    23   ar
    22    23    24   ar
    23    24    25   ar
    24    25    26   ar
    25    26    27   ar
    26    13    14   ar
    27    14     9   ar
    28     7     2   ar
    29    21    16   ar
    30    27    22   ar
@<TRIPOS>MOLECULE
*****
 27 30 0 0 0
SMALL
GASTEIGER

@<TRIPOS>ATOM
      1 C         140.0566  142.4775  166.6831 C.3     1  UNL1        0.0367
      2 C         141.1877  140.4041  167.7655 C.ar    1  UNL1        0.0774
      3 N         142.1469  139.8181  168.7588 N.ar    1  UNL1       -0.2442
      4 C         142.9341  140.7196  169.6630 C.ar    1  UNL1        0.0988
      5 C         142.7622  142.2070  169.5740 C.ar    1  UNL1        0.0204
      6 C         141.8030  142.7930  168.5806 C.ar    1  UNL1       -0.0012
      7 C         141.0158  141.8915  167.6764 C.ar    1  UNL1       -0.0038
      8 CL        140.9820  137.1710  163.7029 Cl      1  UNL1       -0.0822
      9 C         140.2976  137.8861  164.8299 C.ar    1  UNL1        0.0577
     10 C         138.8261  137.6997  165.0527 C.ar    1  UNL1        0.0114
     11 C         138.1417  138.4148  166.1798 C.ar    1  UNL1        0.0009
     12 C         138.9289  139.3162  167.0841 C.ar    1  UNL1        0.0015
     13 C         140.4004  139.5026  166.8612 C.ar    1  UNL1        0.0182
     14 C         141.0848  138.7875  165.7342 C.ar    1  UNL1        0.0129
     15 C         140.4307  142.5506  165.2324 C.3     1  UNL1        0.0520
     16 C         141.5897  143.3982  164.7985 C.ar    1  UNL1        0.0011
     17 C         142.9933  142.9505  165.0803 C.ar    1  UNL1       -0.0008
     18 C         144.1523  143.7981  164.6465 C.ar    1  UNL1        0.0204
     19 C         143.9077  145.0935  163.9307 C.ar    1  UNL1        0.0989
     20 N         142.5041  145.5412  163.6489 N.ar    1  UNL1       -0.2426
     21 C         141.3451  144.6935  164.0828 C.ar    1  UNL1        0.0949
     22 C         139.6458  141.7759  164.2155 C.ar    1  UNL1        0.0011
     23 C         138.1539  141.6783  164.3351 C.ar    1  UNL1       -0.0008
     24 C         137.3690  140.9037  163.3182 C.ar    1  UNL1        0.0204
     25 C         138.0762  140.2268  162.1817 C.ar    1  UNL1        0.0989
     26 N         139.5682  140.3245  162.0621 N.ar    1  UNL1       -0.2426
     27 C         140.3530  141.0990  163.0789 C.ar    1  UNL1        0.0949
@<TRIPOS>BOND
     1     8     9    1
     2     9    10   ar
     3    10    11   ar
     4    11    12   ar
     5    12    13   ar
     6    13     2    1
     7     2     3   ar
     8     3     4   ar
     9     4     5   ar
    10     5     6   ar
    11     6     7   ar
    12     7     1    1
    13     1    15    1
    14    15    16    1
    15    16    17   ar
    16    17    18   ar
    17    18    19   ar
    18    19    20   ar
    19    20    21   ar
    20    15    22    1
    21    22    23   ar
    22    23    24   ar
    23    24    25   ar
    24    25    26   ar
    25    26    27   ar
    26    13    14   ar
    27    14     9   ar
    28     7     2   ar
    29    21    16   ar
    30    27    22   ar
@<TRIPOS>MOLECULE
*****
 27 30 0 0 0
SMALL
GASTEIGER

@<TRIPOS>ATOM
      1 C         141.2890  141.2797  166.5286 C.3     1  UNL1        0.0367
      2 C         143.2339  140.9642  164.8351 C.ar    1  UNL1        0.0774
      3 N         144.3890  140.1585  164.3189 N.ar    1  UNL1       -0.2442
      4 C         144.7544  138.8624  164.9799 C.ar    1  UNL1        0.0988
      5 C         143.9646  138.3721  166.1571 C.ar    1  UNL1        0.0204
      6 C         142.8095  139.1779  166.6733 C.ar    1  UNL1       -0.0012
      7 C         142.4442  140.4739  166.0124 C.ar    1  UNL1       -0.0038
      8 CL        140.6368  143.5683  161.1645 Cl      1  UNL1       -0.0822
      9 C         141.5700  143.5622  162.3388 C.ar    1  UNL1        0.0577
     10 C         142.1378  144.8522  162.8522 C.ar    1  UNL1        0.0114
     11 C         143.0711  144.8461  164.0265 C.ar    1  UNL1        0.0009
     12 C         143.4364  143.5502  164.6875 C.ar    1  UNL1        0.0015
     13 C         142.8686  142.2602  164.1742 C.ar    1  UNL1        0.0182
     14 C         141.9354  142.2663  162.9998 C.ar    1  UNL1        0.0129
     15 C         139.9201  141.0863  165.9466 C.3     1  UNL1        0.0520
     16 C         139.2061  139.7796  166.1270 C.ar    1  UNL1        0.0011
     17 C         139.4100  138.6706  165.1378 C.ar    1  UNL1       -0.0008
     18 C         138.6960  137.3639  165.3182 C.ar    1  UNL1        0.0204
     19 C         137.7781  137.1661  166.4880 C.ar    1  UNL1        0.0989
     20 N         137.5742  138.2750  167.4773 N.ar    1  UNL1       -0.2426
     21 C         138.2883  139.5818  167.2968 C.ar    1  UNL1        0.0949
     22 C         139.2652  142.1998  165.1841 C.ar    1  UNL1        0.0011
     23 C         139.5727  143.6269  165.5286 C.ar    1  UNL1       -0.0008
     24 C         138.9178  144.7404  164.7661 C.ar    1  UNL1        0.0204
     25 C         137.9555  144.4267  163.6590 C.ar    1  UNL1        0.0989
     26 N         137.6480  142.9994  163.3146 N.ar    1  UNL1       -0.2426
     27 C         138.3029  141.8861  164.0771 C.ar    1  UNL1        0.0949
@<TRIPOS>BOND
     1     8     9    1
     2     9    10   ar
     3    10    11   ar
     4    11    12   ar
     5    12    13   ar
     6    13     2    1
     7     2     3   ar
     8     3     4   ar
     9     4     5   ar
    10     5     6   ar
    11     6     7   ar
    12     7     1    1
    13     1    15    1
    14    15    16    1
    15    16    17   ar
    16    17    18   ar
    17    18    19   ar
    18    19    20   ar
    19    20    21   ar
    20    15    22    1
    21    22    23   ar
    22    23    24   ar
    23    24    25   ar
    24    25    26   ar
    25    26    27   ar
    26    13    14   ar
    27    14     9   ar
    28     7     2   ar
    29    21    16   ar
    30    27    22   ar
@<TRIPOS>MOLECULE
*****
 27 30 0 0 0
SMALL
GASTEIGER

@<TRIPOS>ATOM
      1 C         141.2468  141.2684  166.5528 C.3     1  UNL1        0.0367
      2 C         143.1846  140.9675  164.8485 C.ar    1  UNL1        0.0774
      3 N         144.3459  140.1730  164.3288 N.ar    1  UNL1       -0.2442
      4 C         144.7309  138.8847  164.9939 C.ar    1  UNL1        0.0988
      5 C         143.9545  138.3910  166.1786 C.ar    1  UNL1        0.0204
      6 C         142.7931  139.1856  166.6982 C.ar    1  UNL1       -0.0012
      7 C         142.4082  140.4738  166.0332 C.ar    1  UNL1       -0.0038
      8 CL        140.5639  143.5186  161.1574 Cl      1  UNL1       -0.0822
      9 C         141.4892  143.5313  162.3379 C.ar    1  UNL1        0.0577
     10 C         142.0295  144.8321  162.8533 C.ar    1  UNL1        0.0114
     11 C         142.9549  144.8448  164.0338 C.ar    1  UNL1        0.0009
     12 C         143.3399  143.5566  164.6989 C.ar    1  UNL1        0.0015
     13 C         142.7996  142.2558  164.1834 C.ar    1  UNL1        0.0182
     14 C         141.8742  142.2431  163.0029 C.ar    1  UNL1        0.0129
     15 C         139.8802  141.0698  165.9672 C.3     1  UNL1        0.0520
     16 C         139.2237  142.1802  165.2017 C.ar    1  UNL1        0.0011
     17 C         139.5126  143.6087  165.5564 C.ar    1  UNL1       -0.0008
     18 C         138.8561  144.7191  164.7909 C.ar    1  UNL1        0.0204
     19 C         137.9106  144.4009  163.6706 C.ar    1  UNL1        0.0989
     20 N         137.6217  142.9724  163.3159 N.ar    1  UNL1       -0.2426
     21 C         138.2783  141.8620  164.0815 C.ar    1  UNL1        0.0949
     22 C         139.1701  139.7608  166.1471 C.ar    1  UNL1        0.0011
     23 C         139.3799  138.6518  165.1592 C.ar    1  UNL1       -0.0008
     24 C         138.6699  137.3427  165.3390 C.ar    1  UNL1        0.0204
     25 C         137.7500  137.1428  166.5069 C.ar    1  UNL1        0.0989
     26 N         137.5402  138.2519  167.4949 N.ar    1  UNL1       -0.2426
     27 C         138.2503  139.5608  167.3149 C.ar    1  UNL1        0.0949
@<TRIPOS>BOND
     1     8     9    1
     2     9    10   ar
     3    10    11   ar
     4    11    12   ar
     5    12    13   ar
     6    13     2    1
     7     2     3   ar
     8     3     4   ar
     9     4     5   ar
    10     5     6   ar
    11     6     7   ar
    12     7     1    1
    13     1    15    1
    14    15    16    1
    15    16    17   ar
    16    17    18   ar
    17    18    19   ar
    18    19    20   ar
    19    20    21   ar
    20    15    22    1
    21    22    23   ar
    22    23    24   ar
    23    24    25   ar
    24    25    26   ar
    25    26    27   ar
    26    13    14   ar
    27    14     9   ar
    28     7     2   ar
    29    21    16   ar
    30    27    22   ar
@<TRIPOS>MOLECULE
*****
 27 30 0 0 0
SMALL
GASTEIGER

@<TRIPOS>ATOM
      1 C         140.3602  142.3506  167.2062 C.3     1  UNL1        0.0367
      2 C         142.3537  140.7962  167.8062 C.ar    1  UNL1        0.0774
      3 N         142.9715  139.7624  168.7002 N.ar    1  UNL1       -0.2442
      4 C         142.2136  139.2490  169.8886 C.ar    1  UNL1        0.0988
      5 C         140.8379  139.7695  170.1828 C.ar    1  UNL1        0.0204
      6 C         140.2201  140.8034  169.2887 C.ar    1  UNL1       -0.0012
      7 C         140.9780  141.3167  168.1004 C.ar    1  UNL1       -0.0038
      8 CL        144.5676  139.9660  163.1791 Cl      1  UNL1       -0.0822
      9 C         144.2185  140.8945  164.3043 C.ar    1  UNL1        0.0577
     10 C         144.6272  142.3363  164.2412 C.ar    1  UNL1        0.0114
     11 C         144.2781  143.2648  165.3663 C.ar    1  UNL1        0.0009
     12 C         143.5202  142.7515  166.5546 C.ar    1  UNL1        0.0015
     13 C         143.1115  141.3096  166.6178 C.ar    1  UNL1        0.0182
     14 C         143.4606  140.3811  165.4926 C.ar    1  UNL1        0.0129
     15 C         139.7894  141.9493  165.8784 C.3     1  UNL1        0.0520
     16 C         139.4747  140.5091  165.6017 C.ar    1  UNL1        0.0011
     17 C         138.4475  139.7936  166.4281 C.ar    1  UNL1       -0.0008
     18 C         138.1328  138.3534  166.1514 C.ar    1  UNL1        0.0204
     19 C         138.8454  137.6285  165.0483 C.ar    1  UNL1        0.0989
     20 N         139.8726  138.3439  164.2219 N.ar    1  UNL1       -0.2426
     21 C         140.1873  139.7842  164.4986 C.ar    1  UNL1        0.0949
     22 C         139.5333  142.9883  164.8272 C.ar    1  UNL1        0.0011
     23 C         140.6489  143.8779  164.3644 C.ar    1  UNL1       -0.0008
     24 C         140.3928  144.9169  163.3133 C.ar    1  UNL1        0.0204
     25 C         139.0211  145.0663  162.7249 C.ar    1  UNL1        0.0989
     26 N         137.9055  144.1767  163.1877 N.ar    1  UNL1       -0.2426
     27 C         138.1616  143.1377  164.2388 C.ar    1  UNL1        0.0949
@<TRIPOS>BOND
     1     8     9    1
     2     9    10   ar
     3    10    11   ar
     4    11    12   ar
     5    12    13   ar
     6    13     2    1
     7     2     3   ar
     8     3     4   ar
     9     4     5   ar
    10     5     6   ar
    11     6     7   ar
    12     7     1    1
    13     1    15    1
    14    15    16    1
    15    16    17   ar
    16    17    18   ar
    17    18    19   ar
    18    19    20   ar
    19    20    21   ar
    20    15    22    1
    21    22    23   ar
    22    23    24   ar
    23    24    25   ar
    24    25    26   ar
    25    26    27   ar
    26    13    14   ar
    27    14     9   ar
    28     7     2   ar
    29    21    16   ar
    30    27    22   ar
