@<TRIPOS>MOLECULE
*****
 34 39 0 0 0
SMALL
GASTEIGER

@<TRIPOS>ATOM
      1 C         139.3314  146.8226  161.1259 C.3     1  UNL1        0.0903
      2 N         139.7470  145.3906  160.9624 N.3     1  UNL1       -0.2601
      3 C         140.1550  145.3672  159.5192 C.3     1  UNL1        0.1187
      4 C         140.6631  144.7888  158.2318 C.ar    1  UNL1        0.0741
      5 C         140.5430  146.0750  157.4694 C.ar    1  UNL1        0.1147
      6 N         140.9996  145.8242  156.0627 N.ar    1  UNL1       -0.2226
      7 C         141.4018  144.3831  155.9558 C.ar    1  UNL1        0.1786
      8 N         141.1938  143.7432  157.2964 N.ar    1  UNL1       -0.3070
      9 C         141.6665  142.3896  156.8553 C.3     1  UNL1        0.1341
     10 C         142.0091  140.9342  156.9757 C.ar    1  UNL1        0.0035
     11 C         142.5520  139.8316  156.0495 C.ar    1  UNL1       -0.0015
     12 C         142.8672  138.3808  156.2641 C.ar    1  UNL1        0.0131
     13 C         142.6529  137.7581  157.6117 C.ar    1  UNL1        0.1028
     14 C         142.1233  138.5859  158.7449 C.ar    1  UNL1        0.1545
     15 C         142.1695  139.5986  157.6392 C.ar    1  UNL1        0.0358
     16 O         141.8775  138.0506  160.1243 O.3     1  UNL1       -0.4528
     17 C         141.4695  138.0739  161.5676 C.ar    1  UNL1        0.1454
     18 C         141.3760  136.9896  162.9093 C.ar    1  UNL1        0.0375
     19 C         140.9266  137.2036  164.3242 C.ar    1  UNL1        0.0032
     20 C         140.4541  138.5575  164.7644 C.ar    1  UNL1        0.0014
     21 C         140.0049  138.7706  166.1796 C.ar    1  UNL1        0.0001
     22 C         139.5322  140.1241  166.6207 C.ar    1  UNL1        0.0013
     23 C         139.5088  141.2646  165.6467 C.ar    1  UNL1        0.0149
     24 C         139.9580  141.0515  164.2315 C.ar    1  UNL1        0.0539
     25 C         140.4307  139.6980  163.7904 C.ar    1  UNL1        0.0167
     26 C         140.9614  138.6524  162.8549 C.ar    1  UNL1        0.0387
     27 N         139.6154  142.5069  164.1111 N.am    1  UNL1       -0.2575
     28 C         139.0937  143.6643  164.9101 C.3     1  UNL1        0.1001
     29 C         139.0355  144.8614  164.0082 C.3     1  UNL1        0.0472
     30 C         139.5012  144.8552  162.3419 C.3     1  UNL1        0.1373
     31 C         139.4550  143.8426  163.4476 C.2     1  UNL1        0.2439
     32 O         139.1894  144.1156  164.1479 O.2     1  UNL1       -0.2731
     33 C         142.9681  136.3073  157.8262 C.1     1  UNL1        0.1035
     34 N         143.2832  134.8566  158.0409 N.1     1  UNL1       -0.1907
@<TRIPOS>BOND
     1     1     2    1
     2     2     3    1
     3     3     4    1
     4     4     5   ar
     5     5     6   ar
     6     6     7   ar
     7     7     8   ar
     8     8     9    1
     9     9    10    1
    10    10    11   ar
    11    11    12   ar
    12    12    13   ar
    13    13    33    1
    14    33    34    3
    15    13    14   ar
    16    14    15   ar
    17    14    16    1
    18    16    17    1
    19    17    18   ar
    20    18    19   ar
    21    19    20   ar
    22    20    21   ar
    23    21    22   ar
    24    22    23   ar
    25    23    24   ar
    26    24    25   ar
    27    25    26   ar
    28    24    27    1
    29    27    28    1
    30    28    29    1
    31    30    29    1
    32    30    31    1
    33    31    32    2
    34    30     2    1
    35     8     4   ar
    36    15    10   ar
    37    26    17   ar
    38    31    27   am
    39    25    20   ar
@<TRIPOS>MOLECULE
*****
 34 39 0 0 0
SMALL
GASTEIGER

@<TRIPOS>ATOM
      1 C         138.6820  145.2836  155.5684 C.3     1  UNL1        0.0903
      2 N         139.3696  144.0327  156.0293 N.3     1  UNL1       -0.2601
      3 C         139.0452  143.0904  154.9082 C.3     1  UNL1        0.1187
      4 C         139.0385  141.8035  154.1376 C.ar    1  UNL1        0.0741
      5 C         138.2089  142.3451  153.0113 C.ar    1  UNL1        0.1147
      6 N         138.0083  141.2443  152.0124 N.ar    1  UNL1       -0.2226
      7 C         138.7138  140.0222  152.5214 C.ar    1  UNL1        0.1786
      8 N         139.3505  140.3679  153.8348 N.ar    1  UNL1       -0.3070
      9 C         139.9337  139.0021  154.0459 C.3     1  UNL1        0.1341
     10 C         140.6994  137.9142  154.7388 C.ar    1  UNL1        0.0035
     11 C         141.0424  136.4388  154.4667 C.ar    1  UNL1       -0.0015
     12 C         141.8277  135.4148  155.2315 C.ar    1  UNL1        0.0131
     13 C         142.4573  135.7787  156.5433 C.ar    1  UNL1        0.1028
     14 C         142.3018  137.1666  157.0906 C.ar    1  UNL1        0.1545
     15 C         141.5309  137.2697  155.8079 C.ar    1  UNL1        0.0358
     16 O         142.8945  137.6208  158.3914 O.3     1  UNL1       -0.4528
     17 C         143.2190  138.5631  159.5126 C.ar    1  UNL1        0.1454
     18 C         144.0811  138.5537  161.0096 C.ar    1  UNL1        0.0375
     19 C         144.3023  139.6306  162.0301 C.ar    1  UNL1        0.0032
     20 C         143.7186  140.9960  161.8181 C.ar    1  UNL1        0.0014
     21 C         143.9404  142.0722  162.8392 C.ar    1  UNL1        0.0001
     22 C         143.3571  143.4380  162.6281 C.ar    1  UNL1        0.0013
     23 C         142.5522  143.7276  161.3960 C.ar    1  UNL1        0.0149
     24 C         142.3305  142.6514  160.3749 C.ar    1  UNL1        0.0539
     25 C         142.9137  141.2856  160.5860 C.ar    1  UNL1        0.0167
     26 C         143.2257  139.8500  160.2831 C.ar    1  UNL1        0.0387
     27 N         141.5648  143.7393  159.6820 N.am    1  UNL1       -0.2575
     28 C         141.1643  145.1771  159.8319 C.3     1  UNL1        0.1001
     29 C         140.3475  145.5582  158.6330 C.3     1  UNL1        0.0472
     30 C         139.9624  144.4869  157.3302 C.3     1  UNL1        0.1373
     31 C         140.7332  144.3839  158.6129 C.2     1  UNL1        0.2439
     32 O         140.7580  145.0506  159.0492 O.2     1  UNL1       -0.2731
     33 C         143.2426  134.7547  157.3081 C.1     1  UNL1        0.1035
     34 N         144.0278  133.7307  158.0728 N.1     1  UNL1       -0.1907
@<TRIPOS>BOND
     1     1     2    1
     2     2     3    1
     3     3     4    1
     4     4     5   ar
     5     5     6   ar
     6     6     7   ar
     7     7     8   ar
     8     8     9    1
     9     9    10    1
    10    10    11   ar
    11    11    12   ar
    12    12    13   ar
    13    13    33    1
    14    33    34    3
    15    13    14   ar
    16    14    15   ar
    17    14    16    1
    18    16    17    1
    19    17    18   ar
    20    18    19   ar
    21    19    20   ar
    22    20    21   ar
    23    21    22   ar
    24    22    23   ar
    25    23    24   ar
    26    24    25   ar
    27    25    26   ar
    28    24    27    1
    29    27    28    1
    30    28    29    1
    31    30    29    1
    32    30    31    1
    33    31    32    2
    34    30     2    1
    35     8     4   ar
    36    15    10   ar
    37    26    17   ar
    38    31    27   am
    39    25    20   ar
@<TRIPOS>MOLECULE
*****
 34 39 0 0 0
SMALL
GASTEIGER

@<TRIPOS>ATOM
      1 C         139.9825  146.3364  157.1600 C.3     1  UNL1        0.0903
      2 N         140.4354  144.9306  157.4222 N.3     1  UNL1       -0.2601
      3 C         140.4275  144.3574  156.0361 C.3     1  UNL1        0.1187
      4 C         140.5974  143.3229  154.9632 C.ar    1  UNL1        0.0741
      5 C         140.1810  144.2381  153.8502 C.ar    1  UNL1        0.1147
      6 N         140.2457  143.4655  152.5661 N.ar    1  UNL1       -0.2226
      7 C         140.7021  142.0728  152.8855 C.ar    1  UNL1        0.1786
      8 N         140.9195  141.9846  154.3671 N.ar    1  UNL1       -0.3070
      9 C         141.3445  140.5463  154.3383 C.3     1  UNL1        0.1341
     10 C         141.8078  139.2271  154.8813 C.ar    1  UNL1        0.0035
     11 C         142.1480  137.8389  154.3107 C.ar    1  UNL1       -0.0015
     12 C         142.6108  136.5599  154.9433 C.ar    1  UNL1        0.0131
     13 C         142.8228  136.4905  156.4265 C.ar    1  UNL1        0.1028
     14 C         142.5720  137.7001  157.2774 C.ar    1  UNL1        0.1545
     15 C         142.2388  138.2276  155.9134 C.ar    1  UNL1        0.0358
     16 O         142.7566  137.7248  158.7658 O.3     1  UNL1       -0.4528
     17 C         142.7645  138.2981  160.1520 C.ar    1  UNL1        0.1454
     18 C         143.1229  137.7935  161.7648 C.ar    1  UNL1        0.0375
     19 C         143.0700  138.5349  163.0677 C.ar    1  UNL1        0.0032
     20 C         142.6449  139.9731  163.0955 C.ar    1  UNL1        0.0014
     21 C         142.5922  140.7137  164.3989 C.ar    1  UNL1        0.0001
     22 C         142.1672  142.1519  164.4276 C.ar    1  UNL1        0.0013
     23 C         141.7949  142.8496  163.1531 C.ar    1  UNL1        0.0149
     24 C         141.8475  142.1091  161.8497 C.ar    1  UNL1        0.0539
     25 C         142.2725  140.6708  161.8210 C.ar    1  UNL1        0.0167
     26 C         142.5945  139.3326  161.2247 C.ar    1  UNL1        0.0387
     27 N         141.3842  143.4284  161.3067 N.am    1  UNL1       -0.2575
     28 C         141.0253  144.8194  161.7384 C.3     1  UNL1        0.1001
     29 C         140.6357  145.5978  160.5169 C.3     1  UNL1        0.0472
     30 C         140.6200  144.9554  158.9106 C.3     1  UNL1        0.1373
     31 C         140.9531  144.4279  160.2747 C.2     1  UNL1        0.2439
     32 O         140.8739  144.9515  160.8705 O.2     1  UNL1       -0.2731
     33 C         143.2856  135.2115  157.0591 C.1     1  UNL1        0.1035
     34 N         143.7484  133.9326  157.6915 N.1     1  UNL1       -0.1907
@<TRIPOS>BOND
     1     1     2    1
     2     2     3    1
     3     3     4    1
     4     4     5   ar
     5     5     6   ar
     6     6     7   ar
     7     7     8   ar
     8     8     9    1
     9     9    10    1
    10    10    11   ar
    11    11    12   ar
    12    12    13   ar
    13    13    33    1
    14    33    34    3
    15    13    14   ar
    16    14    15   ar
    17    14    16    1
    18    16    17    1
    19    17    18   ar
    20    18    19   ar
    21    19    20   ar
    22    20    21   ar
    23    21    22   ar
    24    22    23   ar
    25    23    24   ar
    26    24    25   ar
    27    25    26   ar
    28    24    27    1
    29    27    28    1
    30    28    29    1
    31    30    29    1
    32    30    31    1
    33    31    32    2
    34    30     2    1
    35     8     4   ar
    36    15    10   ar
    37    26    17   ar
    38    31    27   am
    39    25    20   ar
@<TRIPOS>MOLECULE
*****
 34 39 0 0 0
SMALL
GASTEIGER

@<TRIPOS>ATOM
      1 C         142.9723  136.9367  157.8233 C.3     1  UNL1        0.0903
      2 N         142.4781  138.3477  157.9453 N.3     1  UNL1       -0.2601
      3 C         142.2369  138.6987  156.5070 C.3     1  UNL1        0.1187
      4 C         141.8396  139.5467  155.3352 C.ar    1  UNL1        0.0741
      5 C         142.1363  138.4863  154.3166 C.ar    1  UNL1        0.1147
      6 N         141.8268  139.0470  152.9602 N.ar    1  UNL1       -0.2226
      7 C         141.3388  140.4539  153.1405 C.ar    1  UNL1        0.1786
      8 N         141.3467  140.7627  154.6084 N.ar    1  UNL1       -0.3070
      9 C         140.8332  142.1617  154.4372 C.3     1  UNL1        0.1341
     10 C         140.3774  143.5305  154.8476 C.ar    1  UNL1        0.0035
     11 C         139.8673  144.7992  154.1414 C.ar    1  UNL1       -0.0015
     12 C         139.4282  146.1422  154.6450 C.ar    1  UNL1        0.0131
     13 C         139.4429  146.4329  156.1165 C.ar    1  UNL1        0.1028
     14 C         139.8967  145.3807  157.0844 C.ar    1  UNL1        0.1545
     15 C         140.0485  144.6608  155.7772 C.ar    1  UNL1        0.0358
     16 O         139.9451  145.5803  158.5702 O.3     1  UNL1       -0.4528
     17 C         140.1862  145.2294  160.0086 C.ar    1  UNL1        0.1454
     18 C         140.0492  145.9642  161.5660 C.ar    1  UNL1        0.0375
     19 C         140.3481  145.4368  162.9380 C.ar    1  UNL1        0.0032
     20 C         140.8616  144.0377  163.1083 C.ar    1  UNL1        0.0014
     21 C         141.1602  143.5111  164.4807 C.ar    1  UNL1        0.0001
     22 C         141.6737  142.1122  164.6519 C.ar    1  UNL1        0.0013
     23 C         141.8886  141.2398  163.4508 C.ar    1  UNL1        0.0149
     24 C         141.5899  141.7664  162.0784 C.ar    1  UNL1        0.0539
     25 C         141.0764  143.1653  161.9072 C.ar    1  UNL1        0.0167
     26 C         140.5835  144.3814  161.1803 C.ar    1  UNL1        0.0387
     27 N         142.0458  140.3975  161.6680 N.am    1  UNL1       -0.2575
     28 C         142.5531  139.1053  162.2361 C.3     1  UNL1        0.1001
     29 C         142.7982  138.1621  161.0958 C.3     1  UNL1        0.0472
     30 C         142.5265  138.5474  159.4312 C.3     1  UNL1        0.1373
     31 C         142.3747  139.2671  160.7384 C.2     1  UNL1        0.2439
     32 O         142.5772  138.8458  161.3841 O.2     1  UNL1       -0.2731
     33 C         139.0037  147.7759  156.6201 C.1     1  UNL1        0.1035
     34 N         138.5646  149.1187  157.1238 N.1     1  UNL1       -0.1907
@<TRIPOS>BOND
     1     1     2    1
     2     2     3    1
     3     3     4    1
     4     4     5   ar
     5     5     6   ar
     6     6     7   ar
     7     7     8   ar
     8     8     9    1
     9     9    10    1
    10    10    11   ar
    11    11    12   ar
    12    12    13   ar
    13    13    33    1
    14    33    34    3
    15    13    14   ar
    16    14    15   ar
    17    14    16    1
    18    16    17    1
    19    17    18   ar
    20    18    19   ar
    21    19    20   ar
    22    20    21   ar
    23    21    22   ar
    24    22    23   ar
    25    23    24   ar
    26    24    25   ar
    27    25    26   ar
    28    24    27    1
    29    27    28    1
    30    28    29    1
    31    30    29    1
    32    30    31    1
    33    31    32    2
    34    30     2    1
    35     8     4   ar
    36    15    10   ar
    37    26    17   ar
    38    31    27   am
    39    25    20   ar
@<TRIPOS>MOLECULE
*****
 34 39 0 0 0
SMALL
GASTEIGER

@<TRIPOS>ATOM
      1 C         141.0548  143.2648  163.5275 C.3     1  UNL1        0.0903
      2 N         141.1410  142.7777  162.1114 N.3     1  UNL1       -0.2601
      3 C         141.5724  141.3558  162.3167 C.3     1  UNL1        0.1187
      4 C         141.9717  139.9604  161.9384 C.ar    1  UNL1        0.0741
      5 C         142.1657  139.5054  163.3545 C.ar    1  UNL1        0.1147
      6 N         142.5921  138.0676  163.3250 N.ar    1  UNL1       -0.2226
      7 C         142.6616  137.6339  161.8907 C.ar    1  UNL1        0.1786
      8 N         142.2782  138.8038  161.0337 N.ar    1  UNL1       -0.3070
      9 C         142.4452  138.0621  159.7406 C.3     1  UNL1        0.1341
     10 C         142.4472  137.8483  158.2559 C.ar    1  UNL1        0.0035
     11 C         142.7525  136.6877  157.2924 C.ar    1  UNL1       -0.0015
     12 C         142.7263  136.5674  155.7975 C.ar    1  UNL1        0.0131
     13 C         142.3403  137.7480  154.9566 C.ar    1  UNL1        0.1028
     14 C         141.9805  139.0491  155.6106 C.ar    1  UNL1        0.1545
     15 C         142.2840  138.1949  156.8058 C.ar    1  UNL1        0.0358
     16 O         141.5827  140.2808  154.8528 O.3     1  UNL1       -0.4528
     17 C         141.1513  141.7028  154.6474 C.ar    1  UNL1        0.1454
     18 C         140.7791  142.7723  153.3428 C.ar    1  UNL1        0.0375
     19 C         140.3512  144.2099  153.3339 C.ar    1  UNL1        0.0032
     20 C         140.1845  144.9507  154.6275 C.ar    1  UNL1        0.0014
     21 C         139.7565  146.3883  154.6176 C.ar    1  UNL1        0.0001
     22 C         139.5895  147.1300  155.9107 C.ar    1  UNL1        0.0013
     23 C         139.8505  146.4341  157.2136 C.ar    1  UNL1        0.0149
     24 C         140.2785  144.9965  157.2235 C.ar    1  UNL1        0.0539
     25 C         140.4455  144.2548  155.9304 C.ar    1  UNL1        0.0167
     26 C         140.7520  143.0982  155.0258 C.ar    1  UNL1        0.0387
     27 N         140.2764  145.2103  158.7082 N.am    1  UNL1       -0.2575
     28 C         140.0077  146.2585  159.7470 C.3     1  UNL1        0.1001
     29 C         140.2457  145.6464  161.0955 C.3     1  UNL1        0.0472
     30 C         140.7432  144.0095  161.3535 C.3     1  UNL1        0.1373
     31 C         140.4396  144.8638  160.1584 C.2     1  UNL1        0.2439
     32 O         140.2235  145.6134  160.3223 O.2     1  UNL1       -0.2731
     33 C         142.3141  137.6277  153.4617 C.1     1  UNL1        0.1035
     34 N         142.2879  137.5073  151.9668 N.1     1  UNL1       -0.1907
@<TRIPOS>BOND
     1     1     2    1
     2     2     3    1
     3     3     4    1
     4     4     5   ar
     5     5     6   ar
     6     6     7   ar
     7     7     8   ar
     8     8     9    1
     9     9    10    1
    10    10    11   ar
    11    11    12   ar
    12    12    13   ar
    13    13    33    1
    14    33    34    3
    15    13    14   ar
    16    14    15   ar
    17    14    16    1
    18    16    17    1
    19    17    18   ar
    20    18    19   ar
    21    19    20   ar
    22    20    21   ar
    23    21    22   ar
    24    22    23   ar
    25    23    24   ar
    26    24    25   ar
    27    25    26   ar
    28    24    27    1
    29    27    28    1
    30    28    29    1
    31    30    29    1
    32    30    31    1
    33    31    32    2
    34    30     2    1
    35     8     4   ar
    36    15    10   ar
    37    26    17   ar
    38    31    27   am
    39    25    20   ar
@<TRIPOS>MOLECULE
*****
 34 39 0 0 0
SMALL
GASTEIGER

@<TRIPOS>ATOM
      1 C         141.5050  140.1953  163.8279 C.3     1  UNL1        0.0903
      2 N         141.4798  140.6166  162.3885 N.3     1  UNL1       -0.2601
      3 C         141.0306  142.0427  162.5088 C.3     1  UNL1        0.1187
      4 C         140.6400  143.4161  162.0492 C.ar    1  UNL1        0.0741
      5 C         140.3793  143.9335  163.4329 C.ar    1  UNL1        0.1147
      6 N         139.9457  145.3648  163.3184 N.ar    1  UNL1       -0.2226
      7 C         139.9383  145.7321  161.8640 C.ar    1  UNL1        0.1786
      8 N         140.3674  144.5277  161.0797 N.ar    1  UNL1       -0.3070
      9 C         140.2543  145.2082  159.7477 C.3     1  UNL1        0.1341
     10 C         140.3179  145.3541  158.2562 C.ar    1  UNL1        0.0035
     11 C         140.0492  146.4670  157.2277 C.ar    1  UNL1       -0.0015
     12 C         140.1422  146.5193  155.7315 C.ar    1  UNL1        0.0131
     13 C         140.5731  145.3049  154.9638 C.ar    1  UNL1        0.1028
     14 C         140.9113  144.0380  155.6923 C.ar    1  UNL1        0.1545
     15 C         140.5486  144.9432  156.8322 C.ar    1  UNL1        0.0358
     16 O         141.3506  142.7764  155.0104 O.3     1  UNL1       -0.4528
     17 C         141.7998  141.3502  154.8900 C.ar    1  UNL1        0.1454
     18 C         142.2372  140.2255  153.6539 C.ar    1  UNL1        0.0375
     19 C         142.6741  138.7926  153.7302 C.ar    1  UNL1        0.0032
     20 C         142.7869  138.1129  155.0626 C.ar    1  UNL1        0.0014
     21 C         143.2239  136.6799  155.1379 C.ar    1  UNL1        0.0001
     22 C         143.3370  135.9994  156.4699 C.ar    1  UNL1        0.0013
     23 C         143.0131  136.7517  157.7265 C.ar    1  UNL1        0.0149
     24 C         142.5761  138.1846  157.6511 C.ar    1  UNL1        0.0539
     25 C         142.4630  138.8652  156.3192 C.ar    1  UNL1        0.0167
     26 C         142.1904  139.9768  155.3496 C.ar    1  UNL1        0.0387
     27 N         142.5124  138.0387  159.1427 N.am    1  UNL1       -0.2575
     28 C         142.7405  137.0412  160.2395 C.3     1  UNL1        0.1001
     29 C         142.4380  137.7122  161.5465 C.3     1  UNL1        0.0472
     30 C         141.9191  139.3548  161.7065 C.3     1  UNL1        0.1373
     31 C         142.2817  138.4496  160.5667 C.2     1  UNL1        0.2439
     32 O         142.4950  137.7101  160.7743 O.2     1  UNL1       -0.2731
     33 C         140.6660  145.3572  153.4676 C.1     1  UNL1        0.1035
     34 N         140.7590  145.4094  151.9714 N.1     1  UNL1       -0.1907
@<TRIPOS>BOND
     1     1     2    1
     2     2     3    1
     3     3     4    1
     4     4     5   ar
     5     5     6   ar
     6     6     7   ar
     7     7     8   ar
     8     8     9    1
     9     9    10    1
    10    10    11   ar
    11    11    12   ar
    12    12    13   ar
    13    13    33    1
    14    33    34    3
    15    13    14   ar
    16    14    15   ar
    17    14    16    1
    18    16    17    1
    19    17    18   ar
    20    18    19   ar
    21    19    20   ar
    22    20    21   ar
    23    21    22   ar
    24    22    23   ar
    25    23    24   ar
    26    24    25   ar
    27    25    26   ar
    28    24    27    1
    29    27    28    1
    30    28    29    1
    31    30    29    1
    32    30    31    1
    33    31    32    2
    34    30     2    1
    35     8     4   ar
    36    15    10   ar
    37    26    17   ar
    38    31    27   am
    39    25    20   ar
@<TRIPOS>MOLECULE
*****
 34 39 0 0 0
SMALL
GASTEIGER

@<TRIPOS>ATOM
      1 C         139.3578  146.9669  160.9484 C.3     1  UNL1        0.0903
      2 N         140.0089  145.6897  160.5069 N.3     1  UNL1       -0.2601
      3 C         139.9567  145.8351  159.0149 C.3     1  UNL1        0.1187
      4 C         140.1665  145.4601  157.5778 C.ar    1  UNL1        0.0741
      5 C         139.5422  146.7123  157.0371 C.ar    1  UNL1        0.1147
      6 N         139.5962  146.6477  155.5394 N.ar    1  UNL1       -0.2226
      7 C         140.2539  145.3557  155.1545 C.ar    1  UNL1        0.1786
      8 N         140.6064  144.6217  156.4143 N.ar    1  UNL1       -0.3070
      9 C         141.2093  143.4475  155.7017 C.3     1  UNL1        0.1341
     10 C         141.8834  142.1164  155.5483 C.ar    1  UNL1        0.0035
     11 C         142.3499  141.2252  154.3835 C.ar    1  UNL1       -0.0015
     12 C         143.0260  139.8874  154.3282 C.ar    1  UNL1        0.0131
     13 C         143.3709  139.1682  155.5984 C.ar    1  UNL1        0.1028
     14 C         143.0398  139.7867  156.9242 C.ar    1  UNL1        0.1545
     15 C         142.5262  140.8309  155.9776 C.ar    1  UNL1        0.0358
     16 O         143.3459  139.1429  158.2439 O.3     1  UNL1       -0.4528
     17 C         143.3981  138.9974  159.7360 C.ar    1  UNL1        0.1454
     18 C         143.9549  137.8612  160.9122 C.ar    1  UNL1        0.0375
     19 C         143.9181  137.8916  162.4114 C.ar    1  UNL1        0.0032
     20 C         143.3150  139.0662  163.1231 C.ar    1  UNL1        0.0014
     21 C         143.2787  139.0957  164.6224 C.ar    1  UNL1        0.0001
     22 C         142.6758  140.2699  165.3351 C.ar    1  UNL1        0.0013
     23 C         142.1093  141.4145  164.5485 C.ar    1  UNL1        0.0149
     24 C         142.1456  141.3850  163.0492 C.ar    1  UNL1        0.0539
     25 C         142.7484  140.2108  162.3366 C.ar    1  UNL1        0.0167
     26 C         143.1883  139.3724  161.1731 C.ar    1  UNL1        0.0387
     27 N         141.4714  142.7162  163.2026 N.am    1  UNL1       -0.2575
     28 C         140.9742  143.6715  164.2467 C.3     1  UNL1        0.1001
     29 C         140.3848  144.8591  163.5453 C.3     1  UNL1        0.0472
     30 C         140.3150  145.0458  161.8267 C.3     1  UNL1        0.1373
     31 C         140.8286  144.0017  162.7733 C.2     1  UNL1        0.2439
     32 O         140.7336  144.1680  163.5471 O.2     1  UNL1       -0.2731
     33 C         144.0471  137.8303  155.5430 C.1     1  UNL1        0.1035
     34 N         144.7232  136.4925  155.4876 N.1     1  UNL1       -0.1907
@<TRIPOS>BOND
     1     1     2    1
     2     2     3    1
     3     3     4    1
     4     4     5   ar
     5     5     6   ar
     6     6     7   ar
     7     7     8   ar
     8     8     9    1
     9     9    10    1
    10    10    11   ar
    11    11    12   ar
    12    12    13   ar
    13    13    33    1
    14    33    34    3
    15    13    14   ar
    16    14    15   ar
    17    14    16    1
    18    16    17    1
    19    17    18   ar
    20    18    19   ar
    21    19    20   ar
    22    20    21   ar
    23    21    22   ar
    24    22    23   ar
    25    23    24   ar
    26    24    25   ar
    27    25    26   ar
    28    24    27    1
    29    27    28    1
    30    28    29    1
    31    30    29    1
    32    30    31    1
    33    31    32    2
    34    30     2    1
    35     8     4   ar
    36    15    10   ar
    37    26    17   ar
    38    31    27   am
    39    25    20   ar
@<TRIPOS>MOLECULE
*****
 34 39 0 0 0
SMALL
GASTEIGER

@<TRIPOS>ATOM
      1 C         139.9724  142.4095  160.6515 C.3     1  UNL1        0.0903
      2 N         140.0476  141.3293  159.6134 N.3     1  UNL1       -0.2601
      3 C         141.1390  140.4639  160.1701 C.3     1  UNL1        0.1187
      4 C         142.0936  139.3088  160.2371 C.ar    1  UNL1        0.0741
      5 C         142.7142  139.7439  161.5315 C.ar    1  UNL1        0.1147
      6 N         143.7702  138.7438  161.8984 N.ar    1  UNL1       -0.2226
      7 C         143.8022  137.6906  160.8308 C.ar    1  UNL1        0.1786
      8 N         142.7660  138.0398  159.8040 N.ar    1  UNL1       -0.3070
      9 C         143.0539  136.8501  158.9369 C.3     1  UNL1        0.1341
     10 C         142.9134  135.9209  157.7678 C.ar    1  UNL1        0.0035
     11 C         143.5769  134.6181  157.2872 C.ar    1  UNL1       -0.0015
     12 C         143.3653  133.7475  156.0841 C.ar    1  UNL1        0.0131
     13 C         142.3244  134.1126  155.0678 C.ar    1  UNL1        0.1028
     14 C         141.4950  135.3484  155.2543 C.ar    1  UNL1        0.1545
     15 C         142.3660  135.3936  156.4747 C.ar    1  UNL1        0.0358
     16 O         140.4329  135.7923  154.2926 O.3     1  UNL1       -0.4528
     17 C         139.3415  136.6577  153.7359 C.ar    1  UNL1        0.1454
     18 C         138.2894  136.7023  152.3664 C.ar    1  UNL1        0.0375
     19 C         137.2259  137.6821  151.9678 C.ar    1  UNL1        0.0032
     20 C         136.9387  138.8714  152.8356 C.ar    1  UNL1        0.0014
     21 C         135.8750  139.8507  152.4362 C.ar    1  UNL1        0.0001
     22 C         135.5870  141.0404  153.3033 C.ar    1  UNL1        0.0013
     23 C         136.3628  141.2508  154.5697 C.ar    1  UNL1        0.0149
     24 C         137.4266  140.2715  154.9690 C.ar    1  UNL1        0.0539
     25 C         137.7145  139.0819  154.1019 C.ar    1  UNL1        0.0167
     26 C         138.3869  137.8128  153.6690 C.ar    1  UNL1        0.0387
     27 N         137.5670  141.2008  156.1381 N.am    1  UNL1       -0.2575
     28 C         137.0016  142.4663  156.7116 C.3     1  UNL1        0.1001
     29 C         137.7248  142.7581  157.9930 C.3     1  UNL1        0.0472
     30 C         138.9855  141.7732  158.6516 C.3     1  UNL1        0.1373
     31 C         138.1144  141.7281  157.4313 C.2     1  UNL1        0.2439
     32 O         137.5938  142.3278  157.3628 O.2     1  UNL1       -0.2731
     33 C         142.1129  133.2420  153.8647 C.1     1  UNL1        0.1035
     34 N         141.9014  132.3715  152.6617 N.1     1  UNL1       -0.1907
@<TRIPOS>BOND
     1     1     2    1
     2     2     3    1
     3     3     4    1
     4     4     5   ar
     5     5     6   ar
     6     6     7   ar
     7     7     8   ar
     8     8     9    1
     9     9    10    1
    10    10    11   ar
    11    11    12   ar
    12    12    13   ar
    13    13    33    1
    14    33    34    3
    15    13    14   ar
    16    14    15   ar
    17    14    16    1
    18    16    17    1
    19    17    18   ar
    20    18    19   ar
    21    19    20   ar
    22    20    21   ar
    23    21    22   ar
    24    22    23   ar
    25    23    24   ar
    26    24    25   ar
    27    25    26   ar
    28    24    27    1
    29    27    28    1
    30    28    29    1
    31    30    29    1
    32    30    31    1
    33    31    32    2
    34    30     2    1
    35     8     4   ar
    36    15    10   ar
    37    26    17   ar
    38    31    27   am
    39    25    20   ar
@<TRIPOS>MOLECULE
*****
 34 39 0 0 0
SMALL
GASTEIGER

@<TRIPOS>ATOM
      1 C         143.1960  137.0748  160.1250 C.3     1  UNL1        0.0903
      2 N         142.7333  138.4453  159.7278 N.3     1  UNL1       -0.2601
      3 C         142.9001  138.3902  158.2382 C.3     1  UNL1        0.1187
      4 C         142.8611  138.8782  156.8203 C.ar    1  UNL1        0.0741
      5 C         143.3868  137.5984  156.2408 C.ar    1  UNL1        0.1147
      6 N         143.4726  137.7644  154.7525 N.ar    1  UNL1       -0.2226
      7 C         143.0000  139.1467  154.4122 C.ar    1  UNL1        0.1786
      8 N         142.6220  139.8351  155.6901 N.ar    1  UNL1       -0.3070
      9 C         142.2193  141.1151  155.0197 C.3     1  UNL1        0.1341
     10 C         141.7144  142.5233  154.9111 C.ar    1  UNL1        0.0035
     11 C         141.4550  143.5356  153.7813 C.ar    1  UNL1       -0.0015
     12 C         140.9401  144.9445  153.7704 C.ar    1  UNL1        0.0131
     13 C         140.5671  145.6167  155.0583 C.ar    1  UNL1        0.1028
     14 C         140.7089  144.8802  156.3573 C.ar    1  UNL1        0.1545
     15 C         141.1840  143.8454  155.3808 C.ar    1  UNL1        0.0358
     16 O         140.3615  145.4700  157.6919 O.3     1  UNL1       -0.4528
     17 C         140.1946  145.5251  159.1817 C.ar    1  UNL1        0.1454
     18 C         139.6668  146.6415  160.3897 C.ar    1  UNL1        0.0375
     19 C         139.5676  146.5114  161.8807 C.ar    1  UNL1        0.0032
     20 C         139.9705  145.2310  162.5503 C.ar    1  UNL1        0.0014
     21 C         139.8709  145.1018  164.0414 C.ar    1  UNL1        0.0001
     22 C         140.2736  143.8218  164.7118 C.ar    1  UNL1        0.0013
     23 C         140.7758  142.6710  163.8913 C.ar    1  UNL1        0.0149
     24 C         140.8754  142.8002  162.4002 C.ar    1  UNL1        0.0539
     25 C         140.4727  144.0802  161.7297 C.ar    1  UNL1        0.0167
     26 C         140.2336  145.0370  160.5995 C.ar    1  UNL1        0.0387
     27 N         141.3803  141.3920  162.5088 N.am    1  UNL1       -0.2575
     28 C         141.6736  140.3201  163.5163 C.3     1  UNL1        0.1001
     29 C         142.1862  139.1186  162.7791 C.3     1  UNL1        0.0472
     30 C         142.3858  139.0351  161.0626 C.3     1  UNL1        0.1373
     31 C         141.9107  140.0698  162.0391 C.2     1  UNL1        0.2439
     32 O         141.9179  139.8445  162.8037 O.2     1  UNL1       -0.2731
     33 C         140.0523  147.0256  155.0473 C.1     1  UNL1        0.1035
     34 N         139.5375  148.4344  155.0365 N.1     1  UNL1       -0.1907
@<TRIPOS>BOND
     1     1     2    1
     2     2     3    1
     3     3     4    1
     4     4     5   ar
     5     5     6   ar
     6     6     7   ar
     7     7     8   ar
     8     8     9    1
     9     9    10    1
    10    10    11   ar
    11    11    12   ar
    12    12    13   ar
    13    13    33    1
    14    33    34    3
    15    13    14   ar
    16    14    15   ar
    17    14    16    1
    18    16    17    1
    19    17    18   ar
    20    18    19   ar
    21    19    20   ar
    22    20    21   ar
    23    21    22   ar
    24    22    23   ar
    25    23    24   ar
    26    24    25   ar
    27    25    26   ar
    28    24    27    1
    29    27    28    1
    30    28    29    1
    31    30    29    1
    32    30    31    1
    33    31    32    2
    34    30     2    1
    35     8     4   ar
    36    15    10   ar
    37    26    17   ar
    38    31    27   am
    39    25    20   ar
