@<TRIPOS>MOLECULE
*****
 36 40 0 0 0
SMALL
GASTEIGER

@<TRIPOS>ATOM
      1 C         140.6643  138.8292  160.7112 C.ar    1  UNL1        0.1651
      2 N         140.5712  140.3036  160.9718 N.ar    1  UNL1       -0.2121
      3 C         139.9883  140.8020  162.2609 C.ar    1  UNL1        0.1318
      4 C         139.4984  139.8261  163.2894 C.ar    1  UNL1        0.0491
      5 C         138.9154  140.3245  164.5785 C.ar    1  UNL1        0.0041
      6 C         138.4255  139.3487  165.6069 C.ar    1  UNL1        0.0002
      7 C         138.5186  137.8744  165.3463 C.ar    1  UNL1        0.0015
      8 C         139.1015  137.3760  164.0572 C.ar    1  UNL1        0.0192
      9 C         139.5914  138.3518  163.0287 C.ar    1  UNL1        0.0856
     10 N         140.1744  137.8534  161.7396 N.ar    1  UNL1       -0.2264
     11 C         142.4131  137.3340  156.8439 C.ar    1  UNL1        0.1342
     12 C         140.9677  137.7292  156.9102 C.ar    1  UNL1        0.0239
     13 C         140.3847  138.2276  158.1993 C.ar    1  UNL1        0.0063
     14 C         141.2472  138.3308  159.4221 C.ar    1  UNL1        0.0550
     15 C         142.6928  137.9357  159.3559 C.ar    1  UNL1        0.1020
     16 N         143.2757  137.4372  158.0668 N.ar    1  UNL1       -0.2392
     17 N         144.4801  136.8710  155.3395 N.am    1  UNL1       -0.3241
     18 C         142.9961  136.8356  155.5548 C.2     1  UNL1        0.2605
     19 O         142.0949  136.3018  154.4810 O.2     1  UNL1       -0.2687
     20 H         144.8627  136.5439  154.4934 H       1  UNL1        0.1453
     21 H         145.0715  137.2214  156.0443 H       1  UNL1        0.1453
     22 C         138.8224  141.7988  164.8391 C.ar    1  UNL1        0.0001
     23 C         137.6679  142.5855  164.2931 C.ar    1  UNL1        0.0000
     24 C         137.5749  144.0598  164.5537 C.ar    1  UNL1        0.0000
     25 C         138.6364  144.7473  165.3603 C.ar    1  UNL1        0.0000
     26 C         139.7909  143.9605  165.9063 C.ar    1  UNL1        0.0000
     27 C         139.8839  142.4863  165.6456 C.ar    1  UNL1        0.0000
     28 N         139.8952  142.2762  162.5215 N.pl3   1  UNL1       -0.3131
     29 H         139.0990  142.6484  162.9650 H       1  UNL1        0.1485
     30 C         141.0154  143.1834  162.1065 C.3     1  UNL1        0.1348
     31 C         142.1522  143.4505  163.0479 C.ar    1  UNL1        0.0788
     32 C         142.5250  144.8621  163.3921 C.ar    1  UNL1        0.0165
     33 C         143.6619  145.1293  164.3336 C.ar    1  UNL1        0.0029
     34 C         144.4259  143.9849  164.9307 C.ar    1  UNL1        0.0207
     35 C         144.0530  142.5733  164.5865 C.ar    1  UNL1        0.0985
     36 N         142.9162  142.3061  163.6450 N.ar    1  UNL1       -0.2464
@<TRIPOS>BOND
     1    17    18   am
     2    18    19    2
     3    18    11    1
     4    11    12   ar
     5    12    13   ar
     6    13    14   ar
     7    14     1    1
     8     1     2   ar
     9     2     3   ar
    10     3    28    1
    11    28    30    1
    12    30    31    1
    13    31    32   ar
    14    32    33   ar
    15    33    34   ar
    16    34    35   ar
    17    35    36   ar
    18     3     4   ar
    19     4     5   ar
    20     5    22    1
    21    22    23   ar
    22    23    24   ar
    23    24    25   ar
    24    25    26   ar
    25    26    27   ar
    26     5     6   ar
    27     6     7   ar
    28     7     8   ar
    29     8     9   ar
    30     9    10   ar
    31    14    15   ar
    32    15    16   ar
    33    16    11   ar
    34    10     1   ar
    35    36    31   ar
    36     9     4   ar
    37    27    22   ar
    38    17    20    1
    39    17    21    1
    40    28    29    1
@<TRIPOS>MOLECULE
*****
 36 40 0 0 0
SMALL
GASTEIGER

@<TRIPOS>ATOM
      1 C         141.1475  138.9904  163.2493 C.ar    1  UNL1        0.1651
      2 N         142.0960  139.7684  164.1127 N.ar    1  UNL1       -0.2121
      3 C         141.7279  140.0894  165.5309 C.ar    1  UNL1        0.1318
      4 C         140.4112  139.6325  166.0858 C.ar    1  UNL1        0.0491
      5 C         140.0431  139.9536  167.5040 C.ar    1  UNL1        0.0041
      6 C         138.7266  139.4967  168.0589 C.ar    1  UNL1        0.0002
      7 C         137.7782  138.7188  167.1956 C.ar    1  UNL1        0.0015
      8 C         138.1463  138.3977  165.7774 C.ar    1  UNL1        0.0192
      9 C         139.4629  138.8546  165.2225 C.ar    1  UNL1        0.0856
     10 N         139.8310  138.5335  163.8042 N.ar    1  UNL1       -0.2264
     11 C         142.2520  138.0272  158.9946 C.ar    1  UNL1        0.1342
     12 C         143.1935  137.6825  160.1103 C.ar    1  UNL1        0.0239
     13 C         142.8253  138.0035  161.5285 C.ar    1  UNL1        0.0063
     14 C         141.5157  138.6693  161.8311 C.ar    1  UNL1        0.0550
     15 C         140.5742  139.0141  160.7154 C.ar    1  UNL1        0.1020
     16 N         140.9423  138.6930  159.2972 N.ar    1  UNL1       -0.2392
     17 N         141.8547  136.6604  156.8212 N.am    1  UNL1       -0.3241
     18 C         142.6202  137.7061  157.5764 C.2     1  UNL1        0.2605
     19 O         143.7539  138.4309  156.9134 O.2     1  UNL1       -0.2687
     20 H         142.0963  136.4497  155.8903 H       1  UNL1        0.1453
     21 H         141.1106  136.1848  157.2563 H       1  UNL1        0.1453
     22 C         140.9915  140.7315  168.3673 C.ar    1  UNL1        0.0001
     23 C         140.8579  142.2217  168.4745 C.ar    1  UNL1        0.0000
     24 C         141.8064  142.9997  169.3378 C.ar    1  UNL1        0.0000
     25 C         142.8884  142.2874  170.0940 C.ar    1  UNL1        0.0000
     26 C         143.0220  140.7972  169.9868 C.ar    1  UNL1        0.0000
     27 C         142.0736  140.0193  169.1235 C.ar    1  UNL1        0.0000
     28 N         142.6762  140.8673  166.3942 N.pl3   1  UNL1       -0.3131
     29 H         142.6991  140.7103  167.3658 H       1  UNL1        0.1485
     30 C         143.5898  141.8846  165.7771 C.3     1  UNL1        0.1348
     31 C         143.0164  143.0586  165.0405 C.ar    1  UNL1        0.0788
     32 C         143.9256  144.0050  164.3140 C.ar    1  UNL1        0.0165
     33 C         143.3522  145.1791  163.5773 C.ar    1  UNL1        0.0029
     34 C         141.8696  145.4068  163.5671 C.ar    1  UNL1        0.0207
     35 C         140.9604  144.4604  164.2936 C.ar    1  UNL1        0.0985
     36 N         141.5338  143.2864  165.0302 N.ar    1  UNL1       -0.2464
@<TRIPOS>BOND
     1    17    18   am
     2    18    19    2
     3    18    11    1
     4    11    12   ar
     5    12    13   ar
     6    13    14   ar
     7    14     1    1
     8     1     2   ar
     9     2     3   ar
    10     3    28    1
    11    28    30    1
    12    30    31    1
    13    31    32   ar
    14    32    33   ar
    15    33    34   ar
    16    34    35   ar
    17    35    36   ar
    18     3     4   ar
    19     4     5   ar
    20     5    22    1
    21    22    23   ar
    22    23    24   ar
    23    24    25   ar
    24    25    26   ar
    25    26    27   ar
    26     5     6   ar
    27     6     7   ar
    28     7     8   ar
    29     8     9   ar
    30     9    10   ar
    31    14    15   ar
    32    15    16   ar
    33    16    11   ar
    34    10     1   ar
    35    36    31   ar
    36     9     4   ar
    37    27    22   ar
    38    17    20    1
    39    17    21    1
    40    28    29    1
@<TRIPOS>MOLECULE
*****
 36 40 0 0 0
SMALL
GASTEIGER

@<TRIPOS>ATOM
      1 C         138.9143  142.1826  160.2192 C.ar    1  UNL1        0.1651
      2 N         140.3613  142.1251  160.6103 N.ar    1  UNL1       -0.2121
      3 C         140.8023  142.6721  161.9355 C.ar    1  UNL1        0.1318
      4 C         139.7963  143.2766  162.8697 C.ar    1  UNL1        0.0491
      5 C         140.2373  143.8236  164.1949 C.ar    1  UNL1        0.0041
      6 C         139.2314  144.4281  165.1291 C.ar    1  UNL1        0.0002
      7 C         137.7844  144.4856  164.7380 C.ar    1  UNL1        0.0015
      8 C         137.3434  143.9386  163.4127 C.ar    1  UNL1        0.0192
      9 C         138.3493  143.3341  162.4786 C.ar    1  UNL1        0.0856
     10 N         137.9083  142.7871  161.1533 N.ar    1  UNL1       -0.2264
     11 C         137.5913  140.5417  156.2434 C.ar    1  UNL1        0.1342
     12 C         137.3712  141.9895  156.5679 C.ar    1  UNL1        0.0239
     13 C         137.8122  142.5365  157.8932 C.ar    1  UNL1        0.0063
     14 C         138.4733  141.6356  158.8939 C.ar    1  UNL1        0.0550
     15 C         138.6934  140.1878  158.5694 C.ar    1  UNL1        0.1020
     16 N         138.2524  139.6408  157.2441 N.ar    1  UNL1       -0.2392
     17 N         137.6993  140.5731  153.6478 N.am    1  UNL1       -0.3241
     18 C         137.1502  139.9947  154.9181 C.2     1  UNL1        0.2605
     19 O         136.1601  138.8692  154.8633 O.2     1  UNL1       -0.2687
     20 H         137.4099  140.2141  152.7780 H       1  UNL1        0.1453
     21 H         138.3492  141.3118  153.6838 H       1  UNL1        0.1453
     22 C         141.6843  143.7661  164.5860 C.ar    1  UNL1        0.0001
     23 C         142.1584  142.7240  165.5552 C.ar    1  UNL1        0.0000
     24 C         143.6055  142.6665  165.9463 C.ar    1  UNL1        0.0000
     25 C         144.5783  143.6511  165.3682 C.ar    1  UNL1        0.0000
     26 C         144.1041  144.6932  164.3990 C.ar    1  UNL1        0.0000
     27 C         142.6571  144.7507  164.0080 C.ar    1  UNL1        0.0000
     28 N         142.2492  142.6146  162.3266 N.pl3   1  UNL1       -0.3131
     29 H         142.6762  143.3945  162.7495 H       1  UNL1        0.1485
     30 C         143.0457  141.3690  162.0735 C.3     1  UNL1        0.1348
     31 C         143.3416  140.4258  163.2017 C.ar    1  UNL1        0.0788
     32 C         144.7607  140.1797  163.6208 C.ar    1  UNL1        0.0165
     33 C         145.0567  139.2364  164.7490 C.ar    1  UNL1        0.0029
     34 C         143.9336  138.5394  165.4580 C.ar    1  UNL1        0.0207
     35 C         142.5145  138.7855  165.0388 C.ar    1  UNL1        0.0985
     36 N         142.2185  139.7287  163.9107 N.ar    1  UNL1       -0.2464
@<TRIPOS>BOND
     1    17    18   am
     2    18    19    2
     3    18    11    1
     4    11    12   ar
     5    12    13   ar
     6    13    14   ar
     7    14     1    1
     8     1     2   ar
     9     2     3   ar
    10     3    28    1
    11    28    30    1
    12    30    31    1
    13    31    32   ar
    14    32    33   ar
    15    33    34   ar
    16    34    35   ar
    17    35    36   ar
    18     3     4   ar
    19     4     5   ar
    20     5    22    1
    21    22    23   ar
    22    23    24   ar
    23    24    25   ar
    24    25    26   ar
    25    26    27   ar
    26     5     6   ar
    27     6     7   ar
    28     7     8   ar
    29     8     9   ar
    30     9    10   ar
    31    14    15   ar
    32    15    16   ar
    33    16    11   ar
    34    10     1   ar
    35    36    31   ar
    36     9     4   ar
    37    27    22   ar
    38    17    20    1
    39    17    21    1
    40    28    29    1
@<TRIPOS>MOLECULE
*****
 36 40 0 0 0
SMALL
GASTEIGER

@<TRIPOS>ATOM
      1 C         141.3645  143.5761  160.5835 C.ar    1  UNL1        0.1651
      2 N         141.2934  142.1790  161.1250 N.ar    1  UNL1       -0.2121
      3 C         141.9814  141.8381  162.4136 C.ar    1  UNL1        0.1318
      4 C         142.7404  142.8945  163.1608 C.ar    1  UNL1        0.0491
      5 C         143.4283  142.5537  164.4494 C.ar    1  UNL1        0.0041
      6 C         144.1873  143.6099  165.1966 C.ar    1  UNL1        0.0002
      7 C         144.2583  145.0069  164.6551 C.ar    1  UNL1        0.0015
      8 C         143.5703  145.3477  163.3665 C.ar    1  UNL1        0.0192
      9 C         142.8114  144.2915  162.6193 C.ar    1  UNL1        0.0856
     10 N         142.1234  144.6323  161.3307 N.ar    1  UNL1       -0.2264
     11 C         139.3006  144.5985  156.7176 C.ar    1  UNL1        0.1342
     12 C         139.0150  143.2924  157.3977 C.ar    1  UNL1        0.0239
     13 C         139.7029  142.9516  158.6863 C.ar    1  UNL1        0.0063
     14 C         140.6765  143.9169  159.2949 C.ar    1  UNL1        0.0550
     15 C         140.9622  145.2230  158.6148 C.ar    1  UNL1        0.1020
     16 N         140.2742  145.5638  157.3262 N.ar    1  UNL1       -0.2392
     17 N         139.4026  145.4947  154.2812 N.am    1  UNL1       -0.3241
     18 C         138.6127  144.9393  155.4290 C.2     1  UNL1        0.2605
     19 O         137.1347  144.7247  155.2882 O.2     1  UNL1       -0.2687
     20 H         138.9510  145.7184  153.4354 H       1  UNL1        0.1453
     21 H         140.3725  145.6355  154.3736 H       1  UNL1        0.1453
     22 C         143.3572  141.1565  164.9909 C.ar    1  UNL1        0.0001
     23 C         144.3453  140.1243  164.5347 C.ar    1  UNL1        0.0000
     24 C         144.2742  138.7271  165.0762 C.ar    1  UNL1        0.0000
     25 C         143.2151  138.3624  166.0738 C.ar    1  UNL1        0.0000
     26 C         142.2270  139.3948  166.5299 C.ar    1  UNL1        0.0000
     27 C         142.2981  140.7918  165.9885 C.ar    1  UNL1        0.0000
     28 N         141.9103  140.4411  162.9551 N.pl3   1  UNL1       -0.3131
     29 H         142.6657  140.0730  163.4680 H       1  UNL1        0.1485
     30 C         140.6883  139.6049  162.7150 C.3     1  UNL1        0.1348
     31 C         139.8169  139.2022  163.8676 C.ar    1  UNL1        0.0788
     32 C         139.7359  137.7621  164.2792 C.ar    1  UNL1        0.0165
     33 C         138.8644  137.3593  165.4318 C.ar    1  UNL1        0.0029
     34 C         138.0739  138.3967  166.1726 C.ar    1  UNL1        0.0207
     35 C         138.1549  139.8369  165.7609 C.ar    1  UNL1        0.0985
     36 N         139.0264  140.2396  164.6084 N.ar    1  UNL1       -0.2464
@<TRIPOS>BOND
     1    17    18   am
     2    18    19    2
     3    18    11    1
     4    11    12   ar
     5    12    13   ar
     6    13    14   ar
     7    14     1    1
     8     1     2   ar
     9     2     3   ar
    10     3    28    1
    11    28    30    1
    12    30    31    1
    13    31    32   ar
    14    32    33   ar
    15    33    34   ar
    16    34    35   ar
    17    35    36   ar
    18     3     4   ar
    19     4     5   ar
    20     5    22    1
    21    22    23   ar
    22    23    24   ar
    23    24    25   ar
    24    25    26   ar
    25    26    27   ar
    26     5     6   ar
    27     6     7   ar
    28     7     8   ar
    29     8     9   ar
    30     9    10   ar
    31    14    15   ar
    32    15    16   ar
    33    16    11   ar
    34    10     1   ar
    35    36    31   ar
    36     9     4   ar
    37    27    22   ar
    38    17    20    1
    39    17    21    1
    40    28    29    1
@<TRIPOS>MOLECULE
*****
 36 40 0 0 0
SMALL
GASTEIGER

@<TRIPOS>ATOM
      1 C         141.5718  142.6642  165.2182 C.ar    1  UNL1        0.1651
      2 N         142.2411  141.7252  164.2588 N.ar    1  UNL1       -0.2121
      3 C         142.2366  142.0255  162.7891 C.ar    1  UNL1        0.1318
      4 C         141.5627  143.2647  162.2789 C.ar    1  UNL1        0.0491
      5 C         141.5581  143.5650  160.8093 C.ar    1  UNL1        0.0041
      6 C         140.8842  144.8041  160.2990 C.ar    1  UNL1        0.0002
      7 C         140.2149  145.7430  161.2584 C.ar    1  UNL1        0.0015
      8 C         140.2195  145.4427  162.7280 C.ar    1  UNL1        0.0192
      9 C         140.8933  144.2036  163.2383 C.ar    1  UNL1        0.0856
     10 N         140.8979  143.9033  164.7079 N.ar    1  UNL1       -0.2264
     11 C         141.5854  141.7634  169.6271 C.ar    1  UNL1        0.1342
     12 C         140.4500  142.5352  169.0228 C.ar    1  UNL1        0.0239
     13 C         140.4455  142.8355  167.5531 C.ar    1  UNL1        0.0063
     14 C         141.5763  142.3639  166.6878 C.ar    1  UNL1        0.0550
     15 C         142.7117  141.5920  167.2921 C.ar    1  UNL1        0.1020
     16 N         142.7163  141.2918  168.7617 N.ar    1  UNL1       -0.2392
     17 N         142.5638  140.4688  171.6560 N.am    1  UNL1       -0.3241
     18 C         141.5899  141.4632  171.0967 C.2     1  UNL1        0.2605
     19 O         140.6206  142.1573  172.0070 O.2     1  UNL1       -0.2687
     20 H         142.5668  140.2718  172.6206 H       1  UNL1        0.1453
     21 H         143.2000  140.0133  171.0586 H       1  UNL1        0.1453
     22 C         142.2275  142.6260  159.8499 C.ar    1  UNL1        0.0001
     23 C         143.6814  142.7979  159.5234 C.ar    1  UNL1        0.0000
     24 C         144.3507  141.8589  158.5640 C.ar    1  UNL1        0.0000
     25 C         143.5662  140.7481  157.9311 C.ar    1  UNL1        0.0000
     26 C         142.1122  140.5762  158.2577 C.ar    1  UNL1        0.0000
     27 C         141.4429  141.5152  159.2170 C.ar    1  UNL1        0.0000
     28 N         142.9059  141.0866  161.8297 N.pl3   1  UNL1       -0.3131
     29 H         143.3681  141.4408  161.0359 H       1  UNL1        0.1485
     30 C         142.8711  139.6080  162.0799 C.3     1  UNL1        0.1348
     31 C         141.5732  138.9340  162.4130 C.ar    1  UNL1        0.0788
     32 C         141.3717  138.3228  163.7679 C.ar    1  UNL1        0.0165
     33 C         140.0737  137.6488  164.1012 C.ar    1  UNL1        0.0029
     34 C         138.9772  137.5860  163.0794 C.ar    1  UNL1        0.0207
     35 C         139.1788  138.1973  161.7245 C.ar    1  UNL1        0.0985
     36 N         140.4768  138.8712  161.3913 N.ar    1  UNL1       -0.2464
@<TRIPOS>BOND
     1    17    18   am
     2    18    19    2
     3    18    11    1
     4    11    12   ar
     5    12    13   ar
     6    13    14   ar
     7    14     1    1
     8     1     2   ar
     9     2     3   ar
    10     3    28    1
    11    28    30    1
    12    30    31    1
    13    31    32   ar
    14    32    33   ar
    15    33    34   ar
    16    34    35   ar
    17    35    36   ar
    18     3     4   ar
    19     4     5   ar
    20     5    22    1
    21    22    23   ar
    22    23    24   ar
    23    24    25   ar
    24    25    26   ar
    25    26    27   ar
    26     5     6   ar
    27     6     7   ar
    28     7     8   ar
    29     8     9   ar
    30     9    10   ar
    31    14    15   ar
    32    15    16   ar
    33    16    11   ar
    34    10     1   ar
    35    36    31   ar
    36     9     4   ar
    37    27    22   ar
    38    17    20    1
    39    17    21    1
    40    28    29    1
@<TRIPOS>MOLECULE
*****
 36 40 0 0 0
SMALL
GASTEIGER

@<TRIPOS>ATOM
      1 C         142.6431  140.3267  164.6875 C.ar    1  UNL1        0.1651
      2 N         142.3758  141.5968  163.9355 N.ar    1  UNL1       -0.2121
      3 C         142.3291  141.5850  162.4362 C.ar    1  UNL1        0.1318
      4 C         142.5498  140.3032  161.6891 C.ar    1  UNL1        0.0491
      5 C         142.5031  140.2914  160.1898 C.ar    1  UNL1        0.0041
      6 C         142.7237  139.0096  159.4426 C.ar    1  UNL1        0.0002
      7 C         142.9909  137.7396  160.1947 C.ar    1  UNL1        0.0015
      8 C         143.0376  137.7514  161.6939 C.ar    1  UNL1        0.0192
      9 C         142.8170  139.0332  162.4411 C.ar    1  UNL1        0.0856
     10 N         142.8637  139.0449  163.9403 N.ar    1  UNL1       -0.2264
     11 C         142.7831  140.3621  169.1852 C.ar    1  UNL1        0.1342
     12 C         142.5773  141.6423  168.4311 C.ar    1  UNL1        0.0239
     13 C         142.5306  141.6305  166.9319 C.ar    1  UNL1        0.0063
     14 C         142.6898  140.3385  166.1867 C.ar    1  UNL1        0.0550
     15 C         142.8956  139.0582  166.9408 C.ar    1  UNL1        0.1020
     16 N         142.9423  139.0700  168.4400 N.ar    1  UNL1       -0.2392
     17 N         143.8744  139.5775  171.4085 N.am    1  UNL1       -0.3241
     18 C         142.8298  140.3739  170.6844 C.2     1  UNL1        0.2605
     19 O         141.8317  141.1821  171.4595 O.2     1  UNL1       -0.2687
     20 H         143.9050  139.5852  172.3925 H       1  UNL1        0.1453
     21 H         144.5294  139.0470  170.8998 H       1  UNL1        0.1453
     22 C         142.2358  141.5615  159.4378 C.ar    1  UNL1        0.0001
     23 C         143.3796  142.4183  158.9824 C.ar    1  UNL1        0.0000
     24 C         143.1123  143.6884  158.2303 C.ar    1  UNL1        0.0000
     25 C         141.7012  144.1016  157.9337 C.ar    1  UNL1        0.0000
     26 C         140.5573  143.2447  158.3892 C.ar    1  UNL1        0.0000
     27 C         140.8247  141.9746  159.1412 C.ar    1  UNL1        0.0000
     28 N         142.0619  142.8550  161.6842 N.pl3   1  UNL1       -0.3131
     29 H         142.1864  142.8846  160.7080 H       1  UNL1        0.1485
     30 C         141.6049  144.0801  162.4194 C.3     1  UNL1        0.1348
     31 C         140.2699  144.0901  163.1032 C.ar    1  UNL1        0.0788
     32 C         140.1176  144.7505  164.4413 C.ar    1  UNL1        0.0165
     33 C         138.7826  144.7605  165.1252 C.ar    1  UNL1        0.0029
     34 C         137.5998  144.1102  164.4707 C.ar    1  UNL1        0.0207
     35 C         137.7522  143.4499  163.1325 C.ar    1  UNL1        0.0985
     36 N         139.0872  143.4398  162.4487 N.ar    1  UNL1       -0.2464
@<TRIPOS>BOND
     1    17    18   am
     2    18    19    2
     3    18    11    1
     4    11    12   ar
     5    12    13   ar
     6    13    14   ar
     7    14     1    1
     8     1     2   ar
     9     2     3   ar
    10     3    28    1
    11    28    30    1
    12    30    31    1
    13    31    32   ar
    14    32    33   ar
    15    33    34   ar
    16    34    35   ar
    17    35    36   ar
    18     3     4   ar
    19     4     5   ar
    20     5    22    1
    21    22    23   ar
    22    23    24   ar
    23    24    25   ar
    24    25    26   ar
    25    26    27   ar
    26     5     6   ar
    27     6     7   ar
    28     7     8   ar
    29     8     9   ar
    30     9    10   ar
    31    14    15   ar
    32    15    16   ar
    33    16    11   ar
    34    10     1   ar
    35    36    31   ar
    36     9     4   ar
    37    27    22   ar
    38    17    20    1
    39    17    21    1
    40    28    29    1
@<TRIPOS>MOLECULE
*****
 36 40 0 0 0
SMALL
GASTEIGER

@<TRIPOS>ATOM
      1 C         140.0527  142.1550  161.7735 C.ar    1  UNL1        0.1651
      2 N         140.5110  142.5143  163.1559 N.ar    1  UNL1       -0.2121
      3 C         140.4331  141.5008  164.2590 C.ar    1  UNL1        0.1318
      4 C         139.8969  140.1280  163.9797 C.ar    1  UNL1        0.0491
      5 C         139.8191  139.1145  165.0827 C.ar    1  UNL1        0.0041
      6 C         139.2829  137.7418  164.8035 C.ar    1  UNL1        0.0002
      7 C         138.8247  137.3825  163.4212 C.ar    1  UNL1        0.0015
      8 C         138.9025  138.3960  162.3181 C.ar    1  UNL1        0.0192
      9 C         139.4387  139.7687  162.5973 C.ar    1  UNL1        0.0856
     10 N         139.5166  140.7822  161.4943 N.ar    1  UNL1       -0.2264
     11 C         140.2864  145.1954  158.4643 C.ar    1  UNL1        0.1342
     12 C         139.6234  143.8721  158.2214 C.ar    1  UNL1        0.0239
     13 C         139.5455  142.8586  159.3245 C.ar    1  UNL1        0.0063
     14 C         140.1306  143.1685  160.6704 C.ar    1  UNL1        0.0550
     15 C         140.7937  144.4919  160.9133 C.ar    1  UNL1        0.1020
     16 N         140.8716  145.5054  159.8102 N.ar    1  UNL1       -0.2392
     17 N         141.5896  146.2870  156.4996 N.am    1  UNL1       -0.3241
     18 C         140.3643  146.2089  157.3612 C.2     1  UNL1        0.2605
     19 O         139.2167  147.1443  157.1197 O.2     1  UNL1       -0.2687
     20 H         141.6407  146.9522  155.7756 H       1  UNL1        0.1453
     21 H         142.3428  145.6731  156.6581 H       1  UNL1        0.1453
     22 C         140.2774  139.4739  166.4651 C.ar    1  UNL1        0.0001
     23 C         139.3002  140.0287  167.4587 C.ar    1  UNL1        0.0000
     24 C         139.7585  140.3881  168.8411 C.ar    1  UNL1        0.0000
     25 C         141.1940  140.1925  169.2298 C.ar    1  UNL1        0.0000
     26 C         142.1712  139.6377  168.2362 C.ar    1  UNL1        0.0000
     27 C         141.7129  139.2783  166.8539 C.ar    1  UNL1        0.0000
     28 N         140.8914  141.8601  165.6413 N.pl3   1  UNL1       -0.3131
     29 H         140.3343  141.6303  166.4198 H       1  UNL1        0.1485
     30 C         142.1985  142.5695  165.8375 C.3     1  UNL1        0.1348
     31 C         143.3359  142.3212  164.8917 C.ar    1  UNL1        0.0788
     32 C         144.1020  141.0335  164.9618 C.ar    1  UNL1        0.0165
     33 C         145.2396  140.7852  164.0160 C.ar    1  UNL1        0.0029
     34 C         145.6109  141.8245  163.0002 C.ar    1  UNL1        0.0207
     35 C         144.8447  143.1122  162.9302 C.ar    1  UNL1        0.0985
     36 N         143.7073  143.3605  163.8759 N.ar    1  UNL1       -0.2464
@<TRIPOS>BOND
     1    17    18   am
     2    18    19    2
     3    18    11    1
     4    11    12   ar
     5    12    13   ar
     6    13    14   ar
     7    14     1    1
     8     1     2   ar
     9     2     3   ar
    10     3    28    1
    11    28    30    1
    12    30    31    1
    13    31    32   ar
    14    32    33   ar
    15    33    34   ar
    16    34    35   ar
    17    35    36   ar
    18     3     4   ar
    19     4     5   ar
    20     5    22    1
    21    22    23   ar
    22    23    24   ar
    23    24    25   ar
    24    25    26   ar
    25    26    27   ar
    26     5     6   ar
    27     6     7   ar
    28     7     8   ar
    29     8     9   ar
    30     9    10   ar
    31    14    15   ar
    32    15    16   ar
    33    16    11   ar
    34    10     1   ar
    35    36    31   ar
    36     9     4   ar
    37    27    22   ar
    38    17    20    1
    39    17    21    1
    40    28    29    1
@<TRIPOS>MOLECULE
*****
 36 40 0 0 0
SMALL
GASTEIGER

@<TRIPOS>ATOM
      1 C         140.1329  141.2397  164.8000 C.ar    1  UNL1        0.1651
      2 N         140.6306  142.4858  164.1294 N.ar    1  UNL1       -0.2121
      3 C         140.6235  142.5860  162.6327 C.ar    1  UNL1        0.1318
      4 C         140.1188  141.4401  161.8067 C.ar    1  UNL1        0.0491
      5 C         140.1118  141.5404  160.3101 C.ar    1  UNL1        0.0041
      6 C         139.6071  140.3945  159.4840 C.ar    1  UNL1        0.0002
      7 C         139.1095  139.1485  160.1546 C.ar    1  UNL1        0.0015
      8 C         139.1165  139.0483  161.6513 C.ar    1  UNL1        0.0192
      9 C         139.6212  140.1941  162.4773 C.ar    1  UNL1        0.0856
     10 N         139.6282  140.0939  163.9739 N.ar    1  UNL1       -0.2264
     11 C         140.1540  140.9391  169.2899 C.ar    1  UNL1        0.1342
     12 C         140.7691  142.1291  168.6150 C.ar    1  UNL1        0.0239
     13 C         140.7621  142.2293  167.1183 C.ar    1  UNL1        0.0063
     14 C         140.1399  141.1395  166.2966 C.ar    1  UNL1        0.0550
     15 C         139.5248  139.9494  166.9715 C.ar    1  UNL1        0.1020
     16 N         139.5318  139.8492  168.4681 N.ar    1  UNL1       -0.2392
     17 N         139.8687  139.5266  171.4517 N.am    1  UNL1       -0.3241
     18 C         140.1610  140.8389  170.7865 C.2     1  UNL1        0.2605
     19 O         140.4604  142.0510  171.6179 O.2     1  UNL1       -0.2687
     20 H         139.8733  139.4609  172.4340 H       1  UNL1        0.1453
     21 H         139.6722  138.7311  170.9060 H       1  UNL1        0.1453
     22 C         140.6095  142.7865  159.6395 C.ar    1  UNL1        0.0001
     23 C         139.6954  143.9638  159.4711 C.ar    1  UNL1        0.0000
     24 C         140.1931  145.2099  158.8005 C.ar    1  UNL1        0.0000
     25 C         141.6048  145.2786  158.2983 C.ar    1  UNL1        0.0000
     26 C         142.5189  144.1012  158.4667 C.ar    1  UNL1        0.0000
     27 C         142.0212  142.8552  159.1373 C.ar    1  UNL1        0.0000
     28 N         141.1212  143.8321  161.9621 N.pl3   1  UNL1       -0.3131
     29 H         140.5831  144.2604  161.2577 H       1  UNL1        0.1485
     30 C         142.4387  144.4255  162.3649 C.3     1  UNL1        0.1348
     31 C         143.5373  143.5387  162.8711 C.ar    1  UNL1        0.0788
     32 C         143.9467  143.6003  164.3128 C.ar    1  UNL1        0.0165
     33 C         145.0455  142.7134  164.8191 C.ar    1  UNL1        0.0029
     34 C         145.7348  141.7649  163.8836 C.ar    1  UNL1        0.0207
     35 C         145.3253  141.7033  162.4418 C.ar    1  UNL1        0.0985
     36 N         144.2266  142.5901  161.9356 N.ar    1  UNL1       -0.2464
@<TRIPOS>BOND
     1    17    18   am
     2    18    19    2
     3    18    11    1
     4    11    12   ar
     5    12    13   ar
     6    13    14   ar
     7    14     1    1
     8     1     2   ar
     9     2     3   ar
    10     3    28    1
    11    28    30    1
    12    30    31    1
    13    31    32   ar
    14    32    33   ar
    15    33    34   ar
    16    34    35   ar
    17    35    36   ar
    18     3     4   ar
    19     4     5   ar
    20     5    22    1
    21    22    23   ar
    22    23    24   ar
    23    24    25   ar
    24    25    26   ar
    25    26    27   ar
    26     5     6   ar
    27     6     7   ar
    28     7     8   ar
    29     8     9   ar
    30     9    10   ar
    31    14    15   ar
    32    15    16   ar
    33    16    11   ar
    34    10     1   ar
    35    36    31   ar
    36     9     4   ar
    37    27    22   ar
    38    17    20    1
    39    17    21    1
    40    28    29    1
@<TRIPOS>MOLECULE
*****
 36 40 0 0 0
SMALL
GASTEIGER

@<TRIPOS>ATOM
      1 C         139.7821  141.9252  163.0857 C.ar    1  UNL1        0.1651
      2 N         140.7617  142.5806  164.0136 N.ar    1  UNL1       -0.2121
      3 C         140.8214  142.1679  165.4544 C.ar    1  UNL1        0.1318
      4 C         139.9016  141.0997  165.9674 C.ar    1  UNL1        0.0491
      5 C         139.9613  140.6870  167.4083 C.ar    1  UNL1        0.0041
      6 C         139.0415  139.6189  167.9212 C.ar    1  UNL1        0.0002
      7 C         138.0620  138.9636  166.9934 C.ar    1  UNL1        0.0015
      8 C         138.0023  139.3763  165.5525 C.ar    1  UNL1        0.0192
      9 C         138.9220  140.4444  165.0395 C.ar    1  UNL1        0.0856
     10 N         138.8623  140.8571  163.5986 N.ar    1  UNL1       -0.2264
     11 C         139.6028  143.1633  158.7631 C.ar    1  UNL1        0.1342
     12 C         140.9306  142.9820  159.4369 C.ar    1  UNL1        0.0239
     13 C         140.9904  142.5693  160.8777 C.ar    1  UNL1        0.0063
     14 C         139.7223  142.3379  161.6448 C.ar    1  UNL1        0.0550
     15 C         138.3944  142.5192  160.9710 C.ar    1  UNL1        0.1020
     16 N         138.3347  142.9319  159.5301 N.ar    1  UNL1       -0.2392
     17 N         138.3908  143.1429  156.4651 N.am    1  UNL1       -0.3241
     18 C         139.5431  143.5760  157.3222 C.2     1  UNL1        0.2605
     19 O         140.6357  144.4219  156.7384 O.2     1  UNL1       -0.2687
     20 H         138.3516  143.4138  155.5194 H       1  UNL1        0.1453
     21 H         137.6737  142.5878  156.8483 H       1  UNL1        0.1453
     22 C         140.9409  141.3424  168.3362 C.ar    1  UNL1        0.0001
     23 C         140.5916  142.6414  168.9998 C.ar    1  UNL1        0.0000
     24 C         141.5712  143.2968  169.9277 C.ar    1  UNL1        0.0000
     25 C         142.9001  142.6532  170.1919 C.ar    1  UNL1        0.0000
     26 C         143.2493  141.3541  169.5282 C.ar    1  UNL1        0.0000
     27 C         142.2698  140.6988  168.6003 C.ar    1  UNL1        0.0000
     28 N         141.8009  142.8232  166.3823 N.pl3   1  UNL1       -0.3131
     29 H         141.4837  143.2535  167.2090 H       1  UNL1        0.1485
     30 C         143.2638  142.8230  166.0506 C.3     1  UNL1        0.1348
     31 C         143.7731  141.9987  164.9056 C.ar    1  UNL1        0.0788
     32 C         143.8530  140.5063  165.0330 C.ar    1  UNL1        0.0165
     33 C         144.3623  139.6819  163.8880 C.ar    1  UNL1        0.0029
     34 C         144.7917  140.3500  162.6155 C.ar    1  UNL1        0.0207
     35 C         144.7119  141.8425  162.4881 C.ar    1  UNL1        0.0985
     36 N         144.2026  142.6668  163.6331 N.ar    1  UNL1       -0.2464
@<TRIPOS>BOND
     1    17    18   am
     2    18    19    2
     3    18    11    1
     4    11    12   ar
     5    12    13   ar
     6    13    14   ar
     7    14     1    1
     8     1     2   ar
     9     2     3   ar
    10     3    28    1
    11    28    30    1
    12    30    31    1
    13    31    32   ar
    14    32    33   ar
    15    33    34   ar
    16    34    35   ar
    17    35    36   ar
    18     3     4   ar
    19     4     5   ar
    20     5    22    1
    21    22    23   ar
    22    23    24   ar
    23    24    25   ar
    24    25    26   ar
    25    26    27   ar
    26     5     6   ar
    27     6     7   ar
    28     7     8   ar
    29     8     9   ar
    30     9    10   ar
    31    14    15   ar
    32    15    16   ar
    33    16    11   ar
    34    10     1   ar
    35    36    31   ar
    36     9     4   ar
    37    27    22   ar
    38    17    20    1
    39    17    21    1
    40    28    29    1
