@<TRIPOS>MOLECULE
*****
 35 39 0 0 0
SMALL
GASTEIGER

@<TRIPOS>ATOM
      1 N         144.1815  141.6570  158.4419 N.ar    1  UNL1       -0.2265
      2 C         143.6677  142.8295  159.2237 C.ar    1  UNL1        0.1212
      3 C         142.5648  142.3436  160.1167 C.ar    1  UNL1        0.1260
      4 N         141.6916  143.0521  161.1095 N.ar    1  UNL1       -0.2249
      5 C         140.6505  142.2877  161.8724 C.ar    1  UNL1        0.1458
      6 N         140.4827  140.8150  161.6425 N.ar    1  UNL1       -0.2793
      7 C         141.3558  140.1066  160.6497 C.ar    1  UNL1        0.2829
      8 O         141.1880  138.6338  160.4198 O.2     1  UNL1       -0.2652
      9 C         142.3969  140.8709  159.8868 C.ar    1  UNL1        0.1762
     10 N         143.3961  140.4465  158.8517 N.ar    1  UNL1       -0.1586
     11 C         139.7772  142.9961  162.8652 C.ar    1  UNL1        0.0303
     12 C         138.3655  143.3512  162.5033 C.ar    1  UNL1        0.0027
     13 C         137.4923  144.0596  163.4961 C.ar    1  UNL1        0.0001
     14 C         138.0308  144.4130  164.8508 C.ar    1  UNL1       -0.0003
     15 C         139.4426  144.0579  165.2127 C.ar    1  UNL1       -0.0042
     16 C         140.3157  143.3495  164.2199 C.ar    1  UNL1       -0.0189
     17 C         141.7274  142.9944  164.5818 C.3     1  UNL1        0.0311
     18 C         147.4972  141.7538  155.4010 C.ar    1  UNL1        0.1388
     19 C         147.5254  142.6915  156.5714 C.ar    1  UNL1        0.0384
     20 C         146.4201  142.6592  157.5851 C.ar    1  UNL1        0.0223
     21 C         145.2867  141.6892  157.4283 C.ar    1  UNL1        0.0831
     22 C         145.2586  140.7515  156.2578 C.ar    1  UNL1        0.0223
     23 C         146.3638  140.7838  155.2442 C.ar    1  UNL1        0.0384
     24 C         150.0309  141.6772  154.8317 C.3     1  UNL1        0.2525
     25 O         148.6024  141.7860  154.3873 O.3     1  UNL1       -0.4714
     26 C         139.4416  140.0506  162.4054 C.3     1  UNL1        0.1119
     27 C         139.5679  139.8896  163.8913 C.3     1  UNL1        0.0388
     28 C         138.3573  140.0265  164.7662 C.3     1  UNL1        0.0048
     29 C         138.4836  139.8655  166.2522 C.3     1  UNL1        0.0174
     30 C         139.8207  139.5677  166.8633 C.3     1  UNL1        0.0720
     31 N         141.0315  139.4309  165.9883 N.3     1  UNL1       -0.2739
     32 C         140.9051  139.5918  164.5024 C.3     1  UNL1        0.0739
     33 C         142.3686  139.1331  166.5995 C.3     1  UNL1        0.0576
     34 C         143.4070  138.3943  165.8084 C.3     1  UNL1        0.0173
     35 C         142.6672  139.5741  168.0018 C.3     1  UNL1        0.0173
@<TRIPOS>BOND
     1    24    25    1
     2    25    18    1
     3    18    19   ar
     4    19    20   ar
     5    20    21   ar
     6    21     1    1
     7     1     2   ar
     8     2     3   ar
     9     3     4   ar
    10     4     5   ar
    11     5    11    1
    12    11    12   ar
    13    12    13   ar
    14    13    14   ar
    15    14    15   ar
    16    15    16   ar
    17    16    17    1
    18     5     6   ar
    19     6    26    1
    20    26    27    1
    21    27    28    1
    22    28    29    1
    23    29    30    1
    24    30    31    1
    25    31    33    1
    26    33    34    1
    27    33    35    1
    28    31    32    1
    29     6     7   ar
    30     7     8    2
    31     7     9   ar
    32     9    10   ar
    33    21    22   ar
    34    22    23   ar
    35    23    18   ar
    36    10     1   ar
    37     9     3   ar
    38    16    11   ar
    39    32    27    1
@<TRIPOS>MOLECULE
*****
 35 39 0 0 0
SMALL
GASTEIGER

@<TRIPOS>ATOM
      1 N         140.0115  143.3335  159.3266 N.ar    1  UNL1       -0.2265
      2 C         138.9029  142.6648  160.0842 C.ar    1  UNL1        0.1212
      3 C         139.5146  141.8928  161.2155 C.ar    1  UNL1        0.1260
      4 N         138.9099  141.0402  162.2913 N.ar    1  UNL1       -0.2249
      5 C         139.7919  140.3791  163.3087 C.ar    1  UNL1        0.1458
      6 N         141.2784  140.5706  163.2504 N.ar    1  UNL1       -0.2793
      7 C         141.8831  141.4233  162.1746 C.ar    1  UNL1        0.2829
      8 O         143.3697  141.6148  162.1162 O.2     1  UNL1       -0.2652
      9 C         141.0012  142.0844  161.1571 C.ar    1  UNL1        0.1762
     10 N         141.3083  142.9748  159.9897 N.ar    1  UNL1       -0.1586
     11 C         139.1872  139.5264  164.3846 C.ar    1  UNL1        0.0303
     12 C         138.5975  140.1665  165.6063 C.ar    1  UNL1        0.0027
     13 C         137.9929  139.3139  166.6820 C.ar    1  UNL1        0.0001
     14 C         137.9779  137.8211  166.5362 C.ar    1  UNL1       -0.0003
     15 C         138.5676  137.1809  165.3146 C.ar    1  UNL1       -0.0042
     16 C         139.1723  138.0336  164.2388 C.ar    1  UNL1       -0.0189
     17 C         139.7620  137.3934  163.0171 C.3     1  UNL1        0.0311
     18 C         139.5314  145.9555  155.7010 C.ar    1  UNL1        0.1388
     19 C         140.2718  146.4647  156.9021 C.ar    1  UNL1        0.0384
     20 C         140.4318  145.5906  158.1106 C.ar    1  UNL1        0.0223
     21 C         139.8515  144.2075  158.1181 C.ar    1  UNL1        0.0831
     22 C         139.1111  143.6983  156.9170 C.ar    1  UNL1        0.0223
     23 C         138.9511  144.5723  155.7085 C.ar    1  UNL1        0.0384
     24 C         140.2183  148.0577  154.3378 C.3     1  UNL1        0.2525
     25 O         139.3713  146.8295  154.4925 O.3     1  UNL1       -0.4714
     26 C         142.1604  139.9095  164.2678 C.3     1  UNL1        0.1119
     27 C         142.3741  140.5524  165.6060 C.3     1  UNL1        0.0388
     28 C         143.0147  141.9058  165.6942 C.3     1  UNL1        0.0048
     29 C         143.2285  142.5488  167.0325 C.3     1  UNL1        0.0174
     30 C         142.8016  141.8382  168.2826 C.3     1  UNL1        0.0720
     31 N         142.1610  140.4847  168.1945 N.3     1  UNL1       -0.2739
     32 C         141.9472  139.8418  166.8562 C.3     1  UNL1        0.0739
     33 C         141.7341  139.7741  169.4447 C.3     1  UNL1        0.0576
     34 C         140.3974  140.0713  170.0570 C.3     1  UNL1        0.0173
     35 C         142.6440  138.7665  170.0824 C.3     1  UNL1        0.0173
@<TRIPOS>BOND
     1    24    25    1
     2    25    18    1
     3    18    19   ar
     4    19    20   ar
     5    20    21   ar
     6    21     1    1
     7     1     2   ar
     8     2     3   ar
     9     3     4   ar
    10     4     5   ar
    11     5    11    1
    12    11    12   ar
    13    12    13   ar
    14    13    14   ar
    15    14    15   ar
    16    15    16   ar
    17    16    17    1
    18     5     6   ar
    19     6    26    1
    20    26    27    1
    21    27    28    1
    22    28    29    1
    23    29    30    1
    24    30    31    1
    25    31    33    1
    26    33    34    1
    27    33    35    1
    28    31    32    1
    29     6     7   ar
    30     7     8    2
    31     7     9   ar
    32     9    10   ar
    33    21    22   ar
    34    22    23   ar
    35    23    18   ar
    36    10     1   ar
    37     9     3   ar
    38    16    11   ar
    39    32    27    1
@<TRIPOS>MOLECULE
*****
 35 39 0 0 0
SMALL
GASTEIGER

@<TRIPOS>ATOM
      1 N         138.9539  142.4099  158.2023 N.ar    1  UNL1       -0.2265
      2 C         140.3870  142.4312  158.6449 C.ar    1  UNL1        0.1212
      3 C         140.4145  142.7457  160.1114 C.ar    1  UNL1        0.1260
      4 N         141.5460  142.8968  161.0843 N.ar    1  UNL1       -0.2249
      5 C         141.2614  143.2210  162.5211 C.ar    1  UNL1        0.1458
      6 N         139.8455  143.3939  162.9847 N.ar    1  UNL1       -0.2793
      7 C         138.7139  143.2427  162.0117 C.ar    1  UNL1        0.2829
      8 O         137.2979  143.4156  162.4753 O.2     1  UNL1       -0.2652
      9 C         138.9984  142.9186  160.5750 C.ar    1  UNL1        0.1762
     10 N         138.0958  142.7110  159.3951 N.ar    1  UNL1       -0.1586
     11 C         142.3930  143.3721  163.4941 C.ar    1  UNL1        0.0303
     12 C         142.9389  144.7345  163.8038 C.ar    1  UNL1        0.0027
     13 C         144.0704  144.8857  164.7769 C.ar    1  UNL1        0.0001
     14 C         144.6561  143.6745  165.4402 C.ar    1  UNL1       -0.0003
     15 C         144.1102  142.3121  165.1305 C.ar    1  UNL1       -0.0042
     16 C         142.9787  142.1609  164.1575 C.ar    1  UNL1       -0.0189
     17 C         142.4328  140.7985  163.8478 C.3     1  UNL1        0.0311
     18 C         137.4869  141.5866  154.0285 C.ar    1  UNL1        0.1388
     19 C         138.9589  141.6051  154.3161 C.ar    1  UNL1        0.0384
     20 C         139.4479  141.8795  155.7074 C.ar    1  UNL1        0.0223
     21 C         138.4649  142.1354  156.8111 C.ar    1  UNL1        0.0831
     22 C         136.9928  142.1169  156.5235 C.ar    1  UNL1        0.0223
     23 C         136.5038  141.8425  155.1322 C.ar    1  UNL1        0.0384
     24 C         136.0172  140.2040  152.3920 C.3     1  UNL1        0.2525
     25 O         136.9978  141.3122  152.6373 O.3     1  UNL1       -0.4714
     26 C         139.5609  143.7180  164.4214 C.3     1  UNL1        0.1119
     27 C         139.6977  142.6555  165.4712 C.3     1  UNL1        0.0388
     28 C         140.4661  142.9377  166.7282 C.3     1  UNL1        0.0048
     29 C         140.6030  141.8752  167.7782 C.3     1  UNL1        0.0174
     30 C         139.9714  140.5305  167.5711 C.3     1  UNL1        0.0720
     31 N         139.2030  140.2483  166.3141 N.3     1  UNL1       -0.2739
     32 C         139.0661  141.3107  165.2643 C.3     1  UNL1        0.0739
     33 C         138.5714  138.9035  166.1071 C.3     1  UNL1        0.0576
     34 C         138.9874  138.0503  164.9457 C.3     1  UNL1        0.0173
     35 C         137.5238  138.4121  167.0616 C.3     1  UNL1        0.0173
@<TRIPOS>BOND
     1    24    25    1
     2    25    18    1
     3    18    19   ar
     4    19    20   ar
     5    20    21   ar
     6    21     1    1
     7     1     2   ar
     8     2     3   ar
     9     3     4   ar
    10     4     5   ar
    11     5    11    1
    12    11    12   ar
    13    12    13   ar
    14    13    14   ar
    15    14    15   ar
    16    15    16   ar
    17    16    17    1
    18     5     6   ar
    19     6    26    1
    20    26    27    1
    21    27    28    1
    22    28    29    1
    23    29    30    1
    24    30    31    1
    25    31    33    1
    26    33    34    1
    27    33    35    1
    28    31    32    1
    29     6     7   ar
    30     7     8    2
    31     7     9   ar
    32     9    10   ar
    33    21    22   ar
    34    22    23   ar
    35    23    18   ar
    36    10     1   ar
    37     9     3   ar
    38    16    11   ar
    39    32    27    1
@<TRIPOS>MOLECULE
*****
 35 39 0 0 0
SMALL
GASTEIGER

@<TRIPOS>ATOM
      1 N         144.3169  141.6233  158.3614 N.ar    1  UNL1       -0.2265
      2 C         143.5933  142.8109  158.9235 C.ar    1  UNL1        0.1212
      3 C         142.7203  142.3331  160.0459 C.ar    1  UNL1        0.1260
      4 N         141.7815  143.0568  160.9651 N.ar    1  UNL1       -0.2249
      5 C         141.0268  142.2976  162.0158 C.ar    1  UNL1        0.1458
      6 N         141.2108  140.8148  162.1473 N.ar    1  UNL1       -0.2793
      7 C         142.1496  140.0911  161.2281 C.ar    1  UNL1        0.2829
      8 O         142.3336  138.6083  161.3596 O.2     1  UNL1       -0.2652
      9 C         142.9043  140.8503  160.1774 C.ar    1  UNL1        0.1762
     10 N         143.8911  140.4116  159.1363 N.ar    1  UNL1       -0.1586
     11 C         140.0879  143.0213  162.9351 C.ar    1  UNL1        0.0303
     12 C         138.6263  143.0968  162.6067 C.ar    1  UNL1        0.0027
     13 C         137.6875  143.8205  163.5260 C.ar    1  UNL1        0.0001
     14 C         138.2104  144.4687  164.7736 C.ar    1  UNL1       -0.0003
     15 C         139.6721  144.3932  165.1019 C.ar    1  UNL1       -0.0042
     16 C         140.6108  143.6695  164.1827 C.ar    1  UNL1       -0.0189
     17 C         142.0725  143.5939  164.5111 C.3     1  UNL1        0.0311
     18 C         147.2501  141.6846  154.9493 C.ar    1  UNL1        0.1388
     19 C         146.0584  140.7752  154.8975 C.ar    1  UNL1        0.0384
     20 C         145.0806  140.7548  156.0350 C.ar    1  UNL1        0.0223
     21 C         145.2946  141.6437  157.2241 C.ar    1  UNL1        0.0831
     22 C         146.4864  142.5531  157.2758 C.ar    1  UNL1        0.0223
     23 C         147.4641  142.5735  156.1384 C.ar    1  UNL1        0.0384
     24 C         149.7010  141.7544  154.0902 C.3     1  UNL1        0.2525
     25 O         148.2279  141.7051  153.8119 O.3     1  UNL1       -0.4714
     26 C         140.4561  140.0556  163.1981 C.3     1  UNL1        0.1119
     27 C         141.0298  139.9109  164.5763 C.3     1  UNL1        0.0388
     28 C         142.2529  139.0706  164.7952 C.3     1  UNL1        0.0048
     29 C         142.8268  138.9259  166.1735 C.3     1  UNL1        0.0174
     30 C         142.1774  139.6214  167.3331 C.3     1  UNL1        0.0720
     31 N         140.9542  140.4618  167.1142 N.3     1  UNL1       -0.2739
     32 C         140.3805  140.6065  165.7360 C.3     1  UNL1        0.0739
     33 C         140.3049  141.1573  168.2738 C.3     1  UNL1        0.0576
     34 C         139.4566  140.3794  169.2356 C.3     1  UNL1        0.0173
     35 C         140.5039  142.6309  168.4715 C.3     1  UNL1        0.0173
@<TRIPOS>BOND
     1    24    25    1
     2    25    18    1
     3    18    19   ar
     4    19    20   ar
     5    20    21   ar
     6    21     1    1
     7     1     2   ar
     8     2     3   ar
     9     3     4   ar
    10     4     5   ar
    11     5    11    1
    12    11    12   ar
    13    12    13   ar
    14    13    14   ar
    15    14    15   ar
    16    15    16   ar
    17    16    17    1
    18     5     6   ar
    19     6    26    1
    20    26    27    1
    21    27    28    1
    22    28    29    1
    23    29    30    1
    24    30    31    1
    25    31    33    1
    26    33    34    1
    27    33    35    1
    28    31    32    1
    29     6     7   ar
    30     7     8    2
    31     7     9   ar
    32     9    10   ar
    33    21    22   ar
    34    22    23   ar
    35    23    18   ar
    36    10     1   ar
    37     9     3   ar
    38    16    11   ar
    39    32    27    1
@<TRIPOS>MOLECULE
*****
 35 39 0 0 0
SMALL
GASTEIGER

@<TRIPOS>ATOM
      1 N         144.6324  142.5640  158.5749 N.ar    1  UNL1       -0.2265
      2 C         143.1679  142.8252  158.7673 C.ar    1  UNL1        0.1212
      3 C         142.8966  142.8793  160.2416 C.ar    1  UNL1        0.1260
      4 N         141.6362  143.1065  161.0224 N.ar    1  UNL1       -0.2249
      5 C         141.6727  143.1059  162.5221 C.ar    1  UNL1        0.1458
      6 N         142.9694  142.8781  163.2407 N.ar    1  UNL1       -0.2793
      7 C         144.2298  142.6509  162.4598 C.ar    1  UNL1        0.2829
      8 O         145.5265  142.4231  163.1785 O.2     1  UNL1       -0.2652
      9 C         144.1934  142.6515  160.9603 C.ar    1  UNL1        0.1762
     10 N         145.2662  142.4567  159.9301 N.ar    1  UNL1       -0.1586
     11 C         140.4122  143.3331  163.3030 C.ar    1  UNL1        0.0303
     12 C         140.0917  144.7011  163.8283 C.ar    1  UNL1        0.0027
     13 C         138.8313  144.9283  164.6092 C.ar    1  UNL1        0.0001
     14 C         137.8914  143.7875  164.8647 C.ar    1  UNL1       -0.0003
     15 C         138.2119  142.4196  164.3394 C.ar    1  UNL1       -0.0042
     16 C         139.4723  142.1924  163.5585 C.ar    1  UNL1       -0.0189
     17 C         139.7928  140.8244  163.0332 C.3     1  UNL1        0.0311
     18 C         146.7524  142.1714  154.6249 C.ar    1  UNL1        0.1388
     19 C         145.2675  141.9739  154.7020 C.ar    1  UNL1        0.0384
     20 C         144.5609  142.1048  156.0187 C.ar    1  UNL1        0.0223
     21 C         145.3391  142.4332  157.2582 C.ar    1  UNL1        0.0831
     22 C         146.8240  142.6307  157.1812 C.ar    1  UNL1        0.0223
     23 C         147.5306  142.4998  155.8645 C.ar    1  UNL1        0.0384
     24 C         148.0050  143.2596  152.6258 C.3     1  UNL1        0.2525
     25 O         147.4591  142.0406  153.3083 O.3     1  UNL1       -0.4714
     26 C         143.0058  142.8776  164.7403 C.3     1  UNL1        0.1119
     27 C         142.9599  141.5799  165.4911 C.3     1  UNL1        0.0388
     28 C         142.9973  140.2796  164.7444 C.3     1  UNL1        0.0048
     29 C         142.9514  138.9818  165.4952 C.3     1  UNL1        0.0174
     30 C         142.8682  138.9844  166.9929 C.3     1  UNL1        0.0720
     31 N         142.8308  140.2848  167.7397 N.3     1  UNL1       -0.2739
     32 C         142.8767  141.5825  166.9889 C.3     1  UNL1        0.0739
     33 C         142.7476  140.2874  169.2375 C.3     1  UNL1        0.0576
     34 C         142.3233  139.0475  169.9671 C.3     1  UNL1        0.0173
     35 C         143.0887  141.5300  170.0054 C.3     1  UNL1        0.0173
@<TRIPOS>BOND
     1    24    25    1
     2    25    18    1
     3    18    19   ar
     4    19    20   ar
     5    20    21   ar
     6    21     1    1
     7     1     2   ar
     8     2     3   ar
     9     3     4   ar
    10     4     5   ar
    11     5    11    1
    12    11    12   ar
    13    12    13   ar
    14    13    14   ar
    15    14    15   ar
    16    15    16   ar
    17    16    17    1
    18     5     6   ar
    19     6    26    1
    20    26    27    1
    21    27    28    1
    22    28    29    1
    23    29    30    1
    24    30    31    1
    25    31    33    1
    26    33    34    1
    27    33    35    1
    28    31    32    1
    29     6     7   ar
    30     7     8    2
    31     7     9   ar
    32     9    10   ar
    33    21    22   ar
    34    22    23   ar
    35    23    18   ar
    36    10     1   ar
    37     9     3   ar
    38    16    11   ar
    39    32    27    1
@<TRIPOS>MOLECULE
*****
 35 39 0 0 0
SMALL
GASTEIGER

@<TRIPOS>ATOM
      1 N         144.6844  141.5460  157.9837 N.ar    1  UNL1       -0.2265
      2 C         144.0591  140.2891  158.5120 C.ar    1  UNL1        0.1212
      3 C         143.2517  140.6471  159.7244 C.ar    1  UNL1        0.1260
      4 N         142.4178  139.8180  160.6556 N.ar    1  UNL1       -0.2249
      5 C         141.7102  140.4673  161.8079 C.ar    1  UNL1        0.1458
      6 N         141.8364  141.9454  162.0290 N.ar    1  UNL1       -0.2793
      7 C         142.6703  142.7745  161.0977 C.ar    1  UNL1        0.2829
      8 O         142.7965  144.2528  161.3187 O.2     1  UNL1       -0.2652
      9 C         143.3779  142.1254  159.9454 C.ar    1  UNL1        0.1762
     10 N         144.2634  142.6809  158.8696 N.ar    1  UNL1       -0.1586
     11 C         140.8763  139.6381  162.7393 C.ar    1  UNL1        0.0303
     12 C         139.3953  139.5316  162.5264 C.ar    1  UNL1        0.0027
     13 C         138.5614  138.7026  163.4576 C.ar    1  UNL1        0.0001
     14 C         139.2085  137.9800  164.6018 C.ar    1  UNL1       -0.0003
     15 C         140.6895  138.0865  164.8147 C.ar    1  UNL1       -0.0042
     16 C         141.5234  138.9156  163.8834 C.ar    1  UNL1       -0.0189
     17 C         143.0044  139.0221  164.0963 C.3     1  UNL1        0.0311
     18 C         147.3544  141.8577  154.3748 C.ar    1  UNL1        0.1388
     19 C         146.1166  141.0121  154.3212 C.ar    1  UNL1        0.0384
     20 C         145.2266  140.9083  155.5242 C.ar    1  UNL1        0.0223
     21 C         145.5744  141.6499  156.7808 C.ar    1  UNL1        0.0831
     22 C         146.8122  142.4955  156.8344 C.ar    1  UNL1        0.0223
     23 C         147.7022  142.5993  155.6314 C.ar    1  UNL1        0.0384
     24 C         149.2341  143.0837  153.0659 C.3     1  UNL1        0.2525
     25 O         148.2444  141.9615  153.1718 O.3     1  UNL1       -0.4714
     26 C         141.1287  142.5947  163.1813 C.3     1  UNL1        0.1119
     27 C         141.6650  142.4409  164.5736 C.3     1  UNL1        0.0388
     28 C         143.1083  142.7341  164.8580 C.3     1  UNL1        0.0048
     29 C         143.6447  142.5803  166.2504 C.3     1  UNL1        0.0174
     30 C         142.7377  142.1334  167.3584 C.3     1  UNL1        0.0720
     31 N         141.2943  141.8402  167.0739 N.3     1  UNL1       -0.2739
     32 C         140.7580  141.9939  165.6816 C.3     1  UNL1        0.0739
     33 C         140.3873  141.3932  168.1820 C.3     1  UNL1        0.0576
     34 C         139.6361  140.1006  168.0609 C.3     1  UNL1        0.0173
     35 C         140.2317  142.2389  169.4110 C.3     1  UNL1        0.0173
@<TRIPOS>BOND
     1    24    25    1
     2    25    18    1
     3    18    19   ar
     4    19    20   ar
     5    20    21   ar
     6    21     1    1
     7     1     2   ar
     8     2     3   ar
     9     3     4   ar
    10     4     5   ar
    11     5    11    1
    12    11    12   ar
    13    12    13   ar
    14    13    14   ar
    15    14    15   ar
    16    15    16   ar
    17    16    17    1
    18     5     6   ar
    19     6    26    1
    20    26    27    1
    21    27    28    1
    22    28    29    1
    23    29    30    1
    24    30    31    1
    25    31    33    1
    26    33    34    1
    27    33    35    1
    28    31    32    1
    29     6     7   ar
    30     7     8    2
    31     7     9   ar
    32     9    10   ar
    33    21    22   ar
    34    22    23   ar
    35    23    18   ar
    36    10     1   ar
    37     9     3   ar
    38    16    11   ar
    39    32    27    1
@<TRIPOS>MOLECULE
*****
 35 39 0 0 0
SMALL
GASTEIGER

@<TRIPOS>ATOM
      1 N         140.5385  145.5681  157.5972 N.ar    1  UNL1       -0.2265
      2 C         141.8863  145.2807  158.1896 C.ar    1  UNL1        0.1212
      3 C         141.6985  144.3151  159.3220 C.ar    1  UNL1        0.1260
      4 N         142.6713  143.6776  160.2692 N.ar    1  UNL1       -0.2249
      5 C         142.1803  142.7307  161.3238 C.ar    1  UNL1        0.1458
      6 N         140.7166  142.4213  161.4313 N.ar    1  UNL1       -0.2793
      7 C         139.7437  143.0588  160.4842 C.ar    1  UNL1        0.2829
      8 O         138.2799  142.7494  160.5917 O.2     1  UNL1       -0.2652
      9 C         140.2347  144.0057  159.4295 C.ar    1  UNL1        0.1762
     10 N         139.5177  144.7801  158.3635 N.ar    1  UNL1       -0.1586
     11 C         143.1532  142.0931  162.2711 C.ar    1  UNL1        0.0303
     12 C         143.6036  140.6803  162.0453 C.ar    1  UNL1        0.0027
     13 C         144.5764  140.0428  162.9924 C.ar    1  UNL1        0.0001
     14 C         145.0989  140.8181  164.1654 C.ar    1  UNL1       -0.0003
     15 C         144.6485  142.2310  164.3912 C.ar    1  UNL1       -0.0042
     16 C         143.6756  142.8685  163.4441 C.ar    1  UNL1       -0.0189
     17 C         143.2252  144.2813  163.6699 C.3     1  UNL1        0.0311
     18 C         139.7037  148.3125  154.1299 C.ar    1  UNL1        0.1388
     19 C         138.9419  148.4711  155.4123 C.ar    1  UNL1        0.0384
     20 C         139.2202  147.5563  156.5680 C.ar    1  UNL1        0.0223
     21 C         140.2602  146.4829  156.4415 C.ar    1  UNL1        0.0831
     22 C         141.0221  146.3242  155.1591 C.ar    1  UNL1        0.0223
     23 C         140.7438  147.2391  154.0034 C.ar    1  UNL1        0.0384
     24 C         139.6064  150.7081  153.1295 C.3     1  UNL1        0.2525
     25 O         139.4255  149.2272  152.9742 O.3     1  UNL1       -0.4714
     26 C         140.2255  141.4744  162.4860 C.3     1  UNL1        0.1119
     27 C         140.2774  141.8698  163.9319 C.3     1  UNL1        0.0388
     28 C         139.7538  143.2077  164.3629 C.3     1  UNL1        0.0048
     29 C         139.8057  143.6033  165.8089 C.3     1  UNL1        0.0174
     30 C         140.3813  142.6608  166.8240 C.3     1  UNL1        0.0720
     31 N         140.9049  141.3227  166.3930 N.3     1  UNL1       -0.2739
     32 C         140.8530  140.9273  164.9471 C.3     1  UNL1        0.0739
     33 C         141.4805  140.3802  167.4082 C.3     1  UNL1        0.0576
     34 C         140.8457  140.2567  168.7615 C.3     1  UNL1        0.0173
     35 C         142.6909  139.5614  167.0698 C.3     1  UNL1        0.0173
@<TRIPOS>BOND
     1    24    25    1
     2    25    18    1
     3    18    19   ar
     4    19    20   ar
     5    20    21   ar
     6    21     1    1
     7     1     2   ar
     8     2     3   ar
     9     3     4   ar
    10     4     5   ar
    11     5    11    1
    12    11    12   ar
    13    12    13   ar
    14    13    14   ar
    15    14    15   ar
    16    15    16   ar
    17    16    17    1
    18     5     6   ar
    19     6    26    1
    20    26    27    1
    21    27    28    1
    22    28    29    1
    23    29    30    1
    24    30    31    1
    25    31    33    1
    26    33    34    1
    27    33    35    1
    28    31    32    1
    29     6     7   ar
    30     7     8    2
    31     7     9   ar
    32     9    10   ar
    33    21    22   ar
    34    22    23   ar
    35    23    18   ar
    36    10     1   ar
    37     9     3   ar
    38    16    11   ar
    39    32    27    1
@<TRIPOS>MOLECULE
*****
 35 39 0 0 0
SMALL
GASTEIGER

@<TRIPOS>ATOM
      1 N         140.5281  145.0072  157.9918 N.ar    1  UNL1       -0.2265
      2 C         139.8316  143.6950  158.1990 C.ar    1  UNL1        0.1212
      3 C         140.3636  143.0821  159.4604 C.ar    1  UNL1        0.1260
      4 N         140.0468  141.7946  160.1618 N.ar    1  UNL1       -0.2249
      5 C         140.7554  141.4404  161.4357 C.ar    1  UNL1        0.1458
      6 N         141.7807  142.3737  162.0080 N.ar    1  UNL1       -0.2793
      7 C         142.0974  143.6612  161.3066 C.ar    1  UNL1        0.2829
      8 O         143.1227  144.5946  161.8790 O.2     1  UNL1       -0.2652
      9 C         141.3889  144.0154  160.0328 C.ar    1  UNL1        0.1762
     10 N         141.4906  145.2053  159.1251 N.ar    1  UNL1       -0.1586
     11 C         140.4386  140.1528  162.1371 C.ar    1  UNL1        0.0303
     12 C         141.3436  138.9677  161.9742 C.ar    1  UNL1        0.0027
     13 C         141.0268  137.6802  162.6756 C.ar    1  UNL1        0.0001
     14 C         139.8051  137.5778  163.5399 C.ar    1  UNL1       -0.0003
     15 C         138.9002  138.7630  163.7028 C.ar    1  UNL1       -0.0042
     16 C         139.2170  140.0505  163.0014 C.ar    1  UNL1       -0.0189
     17 C         138.3120  141.2356  163.1643 C.3     1  UNL1        0.0311
     18 C         139.8495  147.8508  154.5707 C.ar    1  UNL1        0.1388
     19 C         139.0840  148.0198  155.8495 C.ar    1  UNL1        0.0384
     20 C         139.3102  147.0719  156.9899 C.ar    1  UNL1        0.0223
     21 C         140.3019  145.9551  156.8514 C.ar    1  UNL1        0.0831
     22 C         141.0674  145.7861  155.5726 C.ar    1  UNL1        0.0223
     23 C         140.8412  146.7340  154.4322 C.ar    1  UNL1        0.0384
     24 C         139.6226  150.2787  153.6742 C.3     1  UNL1        0.2525
     25 O         139.6233  148.7987  153.4303 O.3     1  UNL1       -0.4714
     26 C         142.4893  142.0196  163.2818 C.3     1  UNL1        0.1119
     27 C         141.7686  142.1189  164.5935 C.3     1  UNL1        0.0388
     28 C         140.8078  143.2445  164.8381 C.3     1  UNL1        0.0048
     29 C         140.0870  143.3438  166.1499 C.3     1  UNL1        0.0174
     30 C         140.3271  142.3174  167.2171 C.3     1  UNL1        0.0720
     31 N         141.2879  141.1917  166.9725 N.3     1  UNL1       -0.2739
     32 C         142.0086  141.0924  165.6608 C.3     1  UNL1        0.0739
     33 C         141.5279  140.1652  168.0397 C.3     1  UNL1        0.0576
     34 C         142.7366  139.2797  167.9703 C.3     1  UNL1        0.0173
     35 C         140.5593  140.0245  169.1763 C.3     1  UNL1        0.0173
@<TRIPOS>BOND
     1    24    25    1
     2    25    18    1
     3    18    19   ar
     4    19    20   ar
     5    20    21   ar
     6    21     1    1
     7     1     2   ar
     8     2     3   ar
     9     3     4   ar
    10     4     5   ar
    11     5    11    1
    12    11    12   ar
    13    12    13   ar
    14    13    14   ar
    15    14    15   ar
    16    15    16   ar
    17    16    17    1
    18     5     6   ar
    19     6    26    1
    20    26    27    1
    21    27    28    1
    22    28    29    1
    23    29    30    1
    24    30    31    1
    25    31    33    1
    26    33    34    1
    27    33    35    1
    28    31    32    1
    29     6     7   ar
    30     7     8    2
    31     7     9   ar
    32     9    10   ar
    33    21    22   ar
    34    22    23   ar
    35    23    18   ar
    36    10     1   ar
    37     9     3   ar
    38    16    11   ar
    39    32    27    1
@<TRIPOS>MOLECULE
*****
 35 39 0 0 0
SMALL
GASTEIGER

@<TRIPOS>ATOM
      1 N         141.8577  137.9371  158.0421 N.ar    1  UNL1       -0.2265
      2 C         140.5963  138.5842  158.5320 C.ar    1  UNL1        0.1212
      3 C         140.9341  139.3981  159.7458 C.ar    1  UNL1        0.1260
      4 N         140.0929  140.2518  160.6478 N.ar    1  UNL1       -0.2249
      5 C         140.7220  140.9614  161.8101 C.ar    1  UNL1        0.1458
      6 N         142.1921  140.8172  162.0703 N.ar    1  UNL1       -0.2793
      7 C         143.0333  139.9635  161.1684 C.ar    1  UNL1        0.2829
      8 O         144.5035  139.8193  161.4287 O.2     1  UNL1       -0.2652
      9 C         142.4043  139.2539  160.0062 C.ar    1  UNL1        0.1762
     10 N         142.9751  138.3510  158.9531 N.ar    1  UNL1       -0.1586
     11 C         139.8808  141.8152  162.7121 C.ar    1  UNL1        0.0303
     12 C         139.7671  143.2892  162.4582 C.ar    1  UNL1        0.0027
     13 C         138.9260  144.1429  163.3601 C.ar    1  UNL1        0.0001
     14 C         138.1984  143.5227  164.5160 C.ar    1  UNL1       -0.0003
     15 C         138.3121  142.0487  164.7699 C.ar    1  UNL1       -0.0042
     16 C         139.1533  141.1950  163.8680 C.ar    1  UNL1       -0.0189
     17 C         139.2670  139.7210  164.1219 C.3     1  UNL1        0.0311
     18 C         142.2251  135.2293  154.4667 C.ar    1  UNL1        0.1388
     19 C         140.8891  135.7984  154.8423 C.ar    1  UNL1        0.0384
     20 C         140.7667  136.7010  156.0341 C.ar    1  UNL1        0.0223
     21 C         141.9802  137.0345  156.8503 C.ar    1  UNL1        0.0831
     22 C         143.3162  136.4654  156.4747 C.ar    1  UNL1        0.0223
     23 C         143.4387  135.5628  155.2829 C.ar    1  UNL1        0.0384
     24 C         141.6143  134.6538  152.0080 C.3     1  UNL1        0.2525
     25 O         142.3476  134.3267  153.2749 O.3     1  UNL1       -0.4714
     26 C         142.8212  141.5268  163.2326 C.3     1  UNL1        0.1119
     27 C         142.7757  140.9126  164.6002 C.3     1  UNL1        0.0388
     28 C         142.9625  139.4333  164.7646 C.3     1  UNL1        0.0048
     29 C         142.9170  138.8190  166.1323 C.3     1  UNL1        0.0174
     30 C         142.6847  139.6839  167.3356 C.3     1  UNL1        0.0720
     31 N         142.4980  141.1632  167.1712 N.3     1  UNL1       -0.2739
     32 C         142.5435  141.7775  165.8036 C.3     1  UNL1        0.0739
     33 C         142.2657  142.0281  168.3746 C.3     1  UNL1        0.0576
     34 C         143.3727  142.2531  169.3614 C.3     1  UNL1        0.0173
     35 C         140.9264  142.6679  168.5911 C.3     1  UNL1        0.0173
@<TRIPOS>BOND
     1    24    25    1
     2    25    18    1
     3    18    19   ar
     4    19    20   ar
     5    20    21   ar
     6    21     1    1
     7     1     2   ar
     8     2     3   ar
     9     3     4   ar
    10     4     5   ar
    11     5    11    1
    12    11    12   ar
    13    12    13   ar
    14    13    14   ar
    15    14    15   ar
    16    15    16   ar
    17    16    17    1
    18     5     6   ar
    19     6    26    1
    20    26    27    1
    21    27    28    1
    22    28    29    1
    23    29    30    1
    24    30    31    1
    25    31    33    1
    26    33    34    1
    27    33    35    1
    28    31    32    1
    29     6     7   ar
    30     7     8    2
    31     7     9   ar
    32     9    10   ar
    33    21    22   ar
    34    22    23   ar
    35    23    18   ar
    36    10     1   ar
    37     9     3   ar
    38    16    11   ar
    39    32    27    1
