@<TRIPOS>MOLECULE
*****
 26 28 0 0 0
SMALL
GASTEIGER

@<TRIPOS>ATOM
      1 C         140.2192  141.0071  165.9576 C.3     1  UNL1        0.0564
      2 C         140.3921  144.1966  170.0561 C.3     1  UNL1        0.0310
      3 C         141.0023  143.0958  169.2401 C.ar    1  UNL1       -0.0221
      4 C         142.3090  142.4888  169.6573 C.ar    1  UNL1       -0.0043
      5 C         142.9191  141.3880  168.8413 C.ar    1  UNL1       -0.0006
      6 C         142.2226  140.8941  167.6081 C.ar    1  UNL1       -0.0037
      7 C         140.9159  141.5010  167.1909 C.ar    1  UNL1       -0.0155
      8 C         140.3057  142.6019  168.0069 C.ar    1  UNL1       -0.0079
      9 C         140.4785  142.3223  165.2845 C.ar    1  UNL1       -0.0152
     10 C         139.4354  143.3998  165.3167 C.ar    1  UNL1       -0.0037
     11 C         139.6947  144.7150  164.6436 C.ar    1  UNL1       -0.0003
     12 C         140.9970  144.9527  163.9383 C.ar    1  UNL1       -0.0000
     13 C         142.0401  143.8752  163.9061 C.ar    1  UNL1       -0.0003
     14 C         141.7808  142.5600  164.5792 C.ar    1  UNL1       -0.0037
     15 C         139.5227  140.5133  164.7244 C.ar    1  UNL1       -0.0152
     16 C         138.2276  141.1362  164.2942 C.ar    1  UNL1       -0.0037
     17 C         137.5311  140.6423  163.0610 C.ar    1  UNL1       -0.0003
     18 C         138.1294  139.5256  162.2579 C.ar    1  UNL1       -0.0000
     19 C         139.4244  138.9028  162.6881 C.ar    1  UNL1       -0.0003
     20 C         140.1210  139.3966  163.9213 C.ar    1  UNL1       -0.0037
     21 C         139.9600  139.6920  166.6307 C.3     1  UNL1        0.0136
     22 C         138.6248  139.4210  167.2583 C.3     1  UNL1        0.0178
     23 C         137.7573  138.3176  166.7290 C.3     1  UNL1        0.0652
     24 N         136.8186  137.5947  167.6489 N.3     1  UNL1       -0.3211
     25 H         137.3558  137.0724  168.3411 H       1  UNL1        0.1189
     26 H         136.2424  136.9496  167.1084 H       1  UNL1        0.1189
@<TRIPOS>BOND
     1     2     3    1
     2     3     4   ar
     3     4     5   ar
     4     5     6   ar
     5     6     7   ar
     6     7     1    1
     7     1    21    1
     8    21    22    1
     9    22    23    1
    10    23    24    1
    11     1     9    1
    12     9    10   ar
    13    10    11   ar
    14    11    12   ar
    15    12    13   ar
    16    13    14   ar
    17     1    15    1
    18    15    16   ar
    19    16    17   ar
    20    17    18   ar
    21    18    19   ar
    22    19    20   ar
    23     7     8   ar
    24     8     3   ar
    25    14     9   ar
    26    20    15   ar
    27    24    25    1
    28    24    26    1
@<TRIPOS>MOLECULE
*****
 26 28 0 0 0
SMALL
GASTEIGER

@<TRIPOS>ATOM
      1 C         140.8539  140.9269  167.3367 C.3     1  UNL1        0.0564
      2 C         141.1497  137.0571  163.8817 C.3     1  UNL1        0.0310
      3 C         140.3633  138.1480  164.5462 C.ar    1  UNL1       -0.0221
      4 C         138.9384  138.3948  164.1478 C.ar    1  UNL1       -0.0043
      5 C         138.1520  139.4856  164.8124 C.ar    1  UNL1       -0.0006
      6 C         138.7905  140.3296  165.8753 C.ar    1  UNL1       -0.0037
      7 C         140.2154  140.0828  166.2737 C.ar    1  UNL1       -0.0155
      8 C         141.0018  138.9920  165.6092 C.ar    1  UNL1       -0.0079
      9 C         141.1503  141.9865  166.3173 C.ar    1  UNL1       -0.0152
     10 C         140.0766  142.9475  165.9004 C.ar    1  UNL1       -0.0037
     11 C         140.3730  144.0071  164.8810 C.ar    1  UNL1       -0.0003
     12 C         141.7431  144.1058  164.2783 C.ar    1  UNL1       -0.0000
     13 C         142.8167  143.1448  164.6951 C.ar    1  UNL1       -0.0003
     14 C         142.5204  142.0851  165.7146 C.ar    1  UNL1       -0.0037
     15 C         141.4925  141.7709  168.3996 C.ar    1  UNL1       -0.0152
     16 C         140.7498  142.9399  168.9759 C.ar    1  UNL1       -0.0037
     17 C         141.3884  143.7840  170.0388 C.ar    1  UNL1       -0.0003
     18 C         142.7695  143.4591  170.5255 C.ar    1  UNL1       -0.0000
     19 C         143.5121  142.2901  169.9493 C.ar    1  UNL1       -0.0003
     20 C         142.8736  141.4460  168.8864 C.ar    1  UNL1       -0.0037
     21 C         140.5575  139.8673  168.3562 C.3     1  UNL1        0.0136
     22 C         139.5874  140.1448  169.4661 C.3     1  UNL1        0.0178
     23 C         139.9095  139.7184  170.8678 C.3     1  UNL1        0.0652
     24 N         140.6531  140.6466  171.7819 N.3     1  UNL1       -0.3211
     25 H         141.5980  140.7899  171.4257 H       1  UNL1        0.1189
     26 H         140.6999  140.2389  172.7157 H       1  UNL1        0.1189
@<TRIPOS>BOND
     1     2     3    1
     2     3     4   ar
     3     4     5   ar
     4     5     6   ar
     5     6     7   ar
     6     7     1    1
     7     1    21    1
     8    21    22    1
     9    22    23    1
    10    23    24    1
    11     1     9    1
    12     9    10   ar
    13    10    11   ar
    14    11    12   ar
    15    12    13   ar
    16    13    14   ar
    17     1    15    1
    18    15    16   ar
    19    16    17   ar
    20    17    18   ar
    21    18    19   ar
    22    19    20   ar
    23     7     8   ar
    24     8     3   ar
    25    14     9   ar
    26    20    15   ar
    27    24    25    1
    28    24    26    1
@<TRIPOS>MOLECULE
*****
 26 28 0 0 0
SMALL
GASTEIGER

@<TRIPOS>ATOM
      1 C         142.2089  141.0101  166.6827 C.3     1  UNL1        0.0564
      2 C         140.5487  137.5034  163.2263 C.3     1  UNL1        0.0310
      3 C         141.6460  138.3636  163.7794 C.ar    1  UNL1       -0.0221
      4 C         143.0106  138.3307  163.1575 C.ar    1  UNL1       -0.0043
      5 C         144.1079  139.1909  163.7106 C.ar    1  UNL1       -0.0006
      6 C         143.8407  140.0840  164.8856 C.ar    1  UNL1       -0.0037
      7 C         142.4761  140.1170  165.5076 C.ar    1  UNL1       -0.0155
      8 C         141.3788  139.2567  164.9545 C.ar    1  UNL1       -0.0079
      9 C         142.6205  142.2020  165.8704 C.ar    1  UNL1       -0.0152
     10 C         143.9889  142.7915  166.0439 C.ar    1  UNL1       -0.0037
     11 C         144.4006  143.9834  165.2316 C.ar    1  UNL1       -0.0003
     12 C         143.4440  144.5858  164.2457 C.ar    1  UNL1       -0.0000
     13 C         142.0756  143.9963  164.0722 C.ar    1  UNL1       -0.0003
     14 C         141.6639  142.8044  164.8846 C.ar    1  UNL1       -0.0037
     15 C         141.9416  141.9033  167.8578 C.ar    1  UNL1       -0.0152
     16 C         140.5891  142.5279  168.0328 C.ar    1  UNL1       -0.0037
     17 C         140.3218  143.4211  169.2079 C.ar    1  UNL1       -0.0003
     18 C         141.4071  143.6897  170.2079 C.ar    1  UNL1       -0.0000
     19 C         142.7595  143.0651  170.0329 C.ar    1  UNL1       -0.0003
     20 C         143.0268  142.1719  168.8578 C.ar    1  UNL1       -0.0037
     21 C         141.7972  139.8183  167.4951 C.3     1  UNL1        0.0136
     22 C         142.8097  139.0964  168.3340 C.3     1  UNL1        0.0178
     23 C         142.5368  138.8442  169.7873 C.3     1  UNL1        0.0652
     24 N         143.2188  137.7096  170.4926 N.3     1  UNL1       -0.3211
     25 H         142.8967  136.8239  170.1022 H       1  UNL1        0.1189
     26 H         142.9953  137.7440  171.4872 H       1  UNL1        0.1189
@<TRIPOS>BOND
     1     2     3    1
     2     3     4   ar
     3     4     5   ar
     4     5     6   ar
     5     6     7   ar
     6     7     1    1
     7     1    21    1
     8    21    22    1
     9    22    23    1
    10    23    24    1
    11     1     9    1
    12     9    10   ar
    13    10    11   ar
    14    11    12   ar
    15    12    13   ar
    16    13    14   ar
    17     1    15    1
    18    15    16   ar
    19    16    17   ar
    20    17    18   ar
    21    18    19   ar
    22    19    20   ar
    23     7     8   ar
    24     8     3   ar
    25    14     9   ar
    26    20    15   ar
    27    24    25    1
    28    24    26    1
@<TRIPOS>MOLECULE
*****
 26 28 0 0 0
SMALL
GASTEIGER

@<TRIPOS>ATOM
      1 C         141.5737  140.8415  167.1727 C.3     1  UNL1        0.0564
      2 C         145.3684  140.9222  163.6239 C.3     1  UNL1        0.0310
      3 C         144.1599  140.2621  164.2187 C.ar    1  UNL1       -0.0221
      4 C         143.6402  138.9823  163.6339 C.ar    1  UNL1       -0.0043
      5 C         142.4317  138.3222  164.2287 C.ar    1  UNL1       -0.0006
      6 C         141.7429  138.9419  165.4083 C.ar    1  UNL1       -0.0037
      7 C         142.2625  140.2217  165.9930 C.ar    1  UNL1       -0.0155
      8 C         143.4710  140.8818  165.3982 C.ar    1  UNL1       -0.0079
      9 C         140.4346  141.2566  166.2894 C.ar    1  UNL1       -0.0152
     10 C         140.3905  142.6459  165.7255 C.ar    1  UNL1       -0.0037
     11 C         139.2515  143.0610  164.8422 C.ar    1  UNL1       -0.0003
     12 C         138.1565  142.0868  164.5228 C.ar    1  UNL1       -0.0000
     13 C         138.2006  140.6976  165.0866 C.ar    1  UNL1       -0.0003
     14 C         139.3397  140.2824  165.9699 C.ar    1  UNL1       -0.0037
     15 C         140.8848  141.4612  168.3522 C.ar    1  UNL1       -0.0152
     16 C         139.7751  140.7264  169.0440 C.ar    1  UNL1       -0.0037
     17 C         139.0863  141.3461  170.2236 C.ar    1  UNL1       -0.0003
     18 C         139.5071  142.7007  170.7114 C.ar    1  UNL1       -0.0000
     19 C         140.6168  143.4356  170.0196 C.ar    1  UNL1       -0.0003
     20 C         141.3057  142.8158  168.8400 C.ar    1  UNL1       -0.0037
     21 C         142.7127  140.4264  168.0560 C.3     1  UNL1        0.0136
     22 C         142.7727  139.0279  168.5950 C.3     1  UNL1        0.0178
     23 C         142.7127  138.7914  170.0751 C.3     1  UNL1        0.0652
     24 N         143.3652  139.7601  171.0164 N.3     1  UNL1       -0.3211
     25 H         144.3759  139.7376  170.8808 H       1  UNL1        0.1189
     26 H         143.1453  139.5003  171.9780 H       1  UNL1        0.1189
@<TRIPOS>BOND
     1     2     3    1
     2     3     4   ar
     3     4     5   ar
     4     5     6   ar
     5     6     7   ar
     6     7     1    1
     7     1    21    1
     8    21    22    1
     9    22    23    1
    10    23    24    1
    11     1     9    1
    12     9    10   ar
    13    10    11   ar
    14    11    12   ar
    15    12    13   ar
    16    13    14   ar
    17     1    15    1
    18    15    16   ar
    19    16    17   ar
    20    17    18   ar
    21    18    19   ar
    22    19    20   ar
    23     7     8   ar
    24     8     3   ar
    25    14     9   ar
    26    20    15   ar
    27    24    25    1
    28    24    26    1
@<TRIPOS>MOLECULE
*****
 26 28 0 0 0
SMALL
GASTEIGER

@<TRIPOS>ATOM
      1 C         140.2678  141.1416  166.1386 C.3     1  UNL1        0.0564
      2 C         140.2404  137.8167  162.1455 C.3     1  UNL1        0.0310
      3 C         139.5887  138.9258  162.9169 C.ar    1  UNL1       -0.0221
      4 C         138.2714  139.4817  162.4631 C.ar    1  UNL1       -0.0043
      5 C         137.6197  140.5908  163.2345 C.ar    1  UNL1       -0.0006
      6 C         138.2851  141.1441  164.4596 C.ar    1  UNL1       -0.0037
      7 C         139.6023  140.5883  164.9134 C.ar    1  UNL1       -0.0155
      8 C         140.2541  139.4792  164.1420 C.ar    1  UNL1       -0.0079
      9 C         140.5223  142.4320  165.4175 C.ar    1  UNL1       -0.0152
     10 C         141.8466  142.6728  164.7555 C.ar    1  UNL1       -0.0037
     11 C         142.1011  143.9633  164.0345 C.ar    1  UNL1       -0.0003
     12 C         141.0312  145.0130  163.9754 C.ar    1  UNL1       -0.0000
     13 C         139.7069  144.7722  164.6373 C.ar    1  UNL1       -0.0003
     14 C         139.4524  143.4817  165.3584 C.ar    1  UNL1       -0.0037
     15 C         140.9333  141.6949  167.3637 C.ar    1  UNL1       -0.0152
     16 C         140.2351  142.7317  168.1930 C.ar    1  UNL1       -0.0037
     17 C         140.9006  143.2850  169.4181 C.ar    1  UNL1       -0.0003
     18 C         142.2643  142.8016  169.8139 C.ar    1  UNL1       -0.0000
     19 C         142.9625  141.7650  168.9847 C.ar    1  UNL1       -0.0003
     20 C         142.2970  141.2116  167.7595 C.ar    1  UNL1       -0.0037
     21 C         140.0134  139.8512  166.8596 C.3     1  UNL1        0.0136
     22 C         138.6460  139.5494  167.3974 C.3     1  UNL1        0.0178
     23 C         137.8373  138.4327  166.8065 C.3     1  UNL1        0.0652
     24 N         136.8553  137.6853  167.6592 N.3     1  UNL1       -0.3211
     25 H         137.3565  137.1691  168.3821 H       1  UNL1        0.1189
     26 H         136.3286  137.0327  167.0786 H       1  UNL1        0.1189
@<TRIPOS>BOND
     1     2     3    1
     2     3     4   ar
     3     4     5   ar
     4     5     6   ar
     5     6     7   ar
     6     7     1    1
     7     1    21    1
     8    21    22    1
     9    22    23    1
    10    23    24    1
    11     1     9    1
    12     9    10   ar
    13    10    11   ar
    14    11    12   ar
    15    12    13   ar
    16    13    14   ar
    17     1    15    1
    18    15    16   ar
    19    16    17   ar
    20    17    18   ar
    21    18    19   ar
    22    19    20   ar
    23     7     8   ar
    24     8     3   ar
    25    14     9   ar
    26    20    15   ar
    27    24    25    1
    28    24    26    1
@<TRIPOS>MOLECULE
*****
 26 28 0 0 0
SMALL
GASTEIGER

@<TRIPOS>ATOM
      1 C         141.3371  141.9210  165.6456 C.3     1  UNL1        0.0564
      2 C         137.7223  138.4713  167.0714 C.3     1  UNL1        0.0310
      3 C         138.7246  139.5271  167.4329 C.ar    1  UNL1       -0.0221
      4 C         138.9218  139.9140  168.8686 C.ar    1  UNL1       -0.0043
      5 C         139.9241  140.9698  169.2301 C.ar    1  UNL1       -0.0006
      6 C         140.7292  141.6388  168.1558 C.ar    1  UNL1       -0.0037
      7 C         140.5320  141.2520  166.7200 C.ar    1  UNL1       -0.0155
      8 C         139.5297  140.1962  166.3586 C.ar    1  UNL1       -0.0079
      9 C         140.1060  142.6304  165.1649 C.ar    1  UNL1       -0.0152
     10 C         139.1905  141.9618  164.1825 C.ar    1  UNL1       -0.0037
     11 C         137.9594  142.6712  163.7018 C.ar    1  UNL1       -0.0003
     12 C         137.6438  144.0492  164.2034 C.ar    1  UNL1       -0.0000
     13 C         138.5592  144.7178  165.1857 C.ar    1  UNL1       -0.0003
     14 C         139.7904  144.0084  165.6665 C.ar    1  UNL1       -0.0037
     15 C         142.1421  142.5900  164.5712 C.ar    1  UNL1       -0.0152
     16 C         141.8682  142.2843  163.1285 C.ar    1  UNL1       -0.0037
     17 C         142.6732  142.9533  162.0541 C.ar    1  UNL1       -0.0003
     18 C         143.7522  143.9281  162.4224 C.ar    1  UNL1       -0.0000
     19 C         144.0261  144.2338  163.8651 C.ar    1  UNL1       -0.0003
     20 C         143.2211  143.5648  164.9396 C.ar    1  UNL1       -0.0037
     21 C         142.5682  141.2116  166.1263 C.3     1  UNL1        0.0136
     22 C         142.9280  139.8686  165.5634 C.3     1  UNL1        0.0178
     23 C         143.2004  138.7174  166.4856 C.3     1  UNL1        0.0652
     24 N         143.0947  138.9044  167.9701 N.3     1  UNL1       -0.3211
     25 H         143.8195  139.5497  168.2840 H       1  UNL1        0.1189
     26 H         143.2155  138.0048  168.4356 H       1  UNL1        0.1189
@<TRIPOS>BOND
     1     2     3    1
     2     3     4   ar
     3     4     5   ar
     4     5     6   ar
     5     6     7   ar
     6     7     1    1
     7     1    21    1
     8    21    22    1
     9    22    23    1
    10    23    24    1
    11     1     9    1
    12     9    10   ar
    13    10    11   ar
    14    11    12   ar
    15    12    13   ar
    16    13    14   ar
    17     1    15    1
    18    15    16   ar
    19    16    17   ar
    20    17    18   ar
    21    18    19   ar
    22    19    20   ar
    23     7     8   ar
    24     8     3   ar
    25    14     9   ar
    26    20    15   ar
    27    24    25    1
    28    24    26    1
@<TRIPOS>MOLECULE
*****
 26 28 0 0 0
SMALL
GASTEIGER

@<TRIPOS>ATOM
      1 C         140.6748  140.2381  165.9962 C.3     1  UNL1        0.0564
      2 C         140.5225  143.8379  169.7403 C.3     1  UNL1        0.0310
      3 C         141.0847  142.5621  169.1870 C.ar    1  UNL1       -0.0221
      4 C         142.1329  141.8102  169.9524 C.ar    1  UNL1       -0.0043
      5 C         142.6951  140.5344  169.3992 C.ar    1  UNL1       -0.0006
      6 C         142.2091  140.0103  168.0804 C.ar    1  UNL1       -0.0037
      7 C         141.1609  140.7622  167.3150 C.ar    1  UNL1       -0.0155
      8 C         140.5987  142.0380  167.8683 C.ar    1  UNL1       -0.0079
      9 C         142.0876  140.1899  165.4947 C.ar    1  UNL1       -0.0152
     10 C         142.7493  141.4400  164.9952 C.ar    1  UNL1       -0.0037
     11 C         144.1621  141.3918  164.4937 C.ar    1  UNL1       -0.0003
     12 C         144.9134  140.0935  164.4916 C.ar    1  UNL1       -0.0000
     13 C         144.2518  138.8434  164.9910 C.ar    1  UNL1       -0.0003
     14 C         142.8389  138.8916  165.4926 C.ar    1  UNL1       -0.0037
     15 C         140.1888  139.7141  164.6774 C.ar    1  UNL1       -0.0152
     16 C         140.2495  138.2439  164.3862 C.ar    1  UNL1       -0.0037
     17 C         139.7635  137.7199  163.0674 C.ar    1  UNL1       -0.0003
     18 C         139.2168  138.6660  162.0398 C.ar    1  UNL1       -0.0000
     19 C         139.1561  140.1362  162.3310 C.ar    1  UNL1       -0.0003
     20 C         139.6421  140.6603  163.6499 C.ar    1  UNL1       -0.0037
     21 C         139.2620  140.2864  166.4977 C.3     1  UNL1        0.0136
     22 C         138.7287  139.1701  167.3459 C.3     1  UNL1        0.0178
     23 C         137.5455  138.3740  166.8806 C.3     1  UNL1        0.0652
     24 N         136.9335  137.3433  167.7824 N.3     1  UNL1       -0.3211
     25 H         137.5997  136.5860  167.9344 H       1  UNL1        0.1189
     26 H         136.0885  136.9710  167.3490 H       1  UNL1        0.1189
@<TRIPOS>BOND
     1     2     3    1
     2     3     4   ar
     3     4     5   ar
     4     5     6   ar
     5     6     7   ar
     6     7     1    1
     7     1    21    1
     8    21    22    1
     9    22    23    1
    10    23    24    1
    11     1     9    1
    12     9    10   ar
    13    10    11   ar
    14    11    12   ar
    15    12    13   ar
    16    13    14   ar
    17     1    15    1
    18    15    16   ar
    19    16    17   ar
    20    17    18   ar
    21    18    19   ar
    22    19    20   ar
    23     7     8   ar
    24     8     3   ar
    25    14     9   ar
    26    20    15   ar
    27    24    25    1
    28    24    26    1
@<TRIPOS>MOLECULE
*****
 26 28 0 0 0
SMALL
GASTEIGER

@<TRIPOS>ATOM
      1 C         141.3920  141.7933  165.4037 C.3     1  UNL1        0.0564
      2 C         137.7258  138.4592  166.9669 C.3     1  UNL1        0.0310
      3 C         138.7678  139.4891  167.2890 C.ar    1  UNL1       -0.0221
      4 C         139.0185  139.8818  168.7148 C.ar    1  UNL1       -0.0043
      5 C         140.0605  140.9117  169.0369 C.ar    1  UNL1       -0.0006
      6 C         140.8516  141.5488  167.9332 C.ar    1  UNL1       -0.0037
      7 C         140.6008  141.1561  166.5075 C.ar    1  UNL1       -0.0155
      8 C         139.5589  140.1262  166.1854 C.ar    1  UNL1       -0.0079
      9 C         140.1786  142.5670  164.9807 C.ar    1  UNL1       -0.0152
     10 C         139.1492  141.9245  164.0989 C.ar    1  UNL1       -0.0037
     11 C         137.9358  142.6982  163.6758 C.ar    1  UNL1       -0.0003
     12 C         137.7517  144.1144  164.1346 C.ar    1  UNL1       -0.0000
     13 C         138.7811  144.7569  165.0164 C.ar    1  UNL1       -0.0003
     14 C         139.9946  143.9832  165.4395 C.ar    1  UNL1       -0.0037
     15 C         142.1830  142.4304  164.3000 C.ar    1  UNL1       -0.0152
     16 C         143.2969  143.3802  164.6274 C.ar    1  UNL1       -0.0037
     17 C         144.0880  144.0174  163.5237 C.ar    1  UNL1       -0.0003
     18 C         143.7653  143.7048  162.0926 C.ar    1  UNL1       -0.0000
     19 C         142.6514  142.7550  161.7652 C.ar    1  UNL1       -0.0003
     20 C         141.8603  142.1178  162.8689 C.ar    1  UNL1       -0.0037
     21 C         142.6054  141.0195  165.8268 C.3     1  UNL1        0.0136
     22 C         142.9657  139.7453  165.1221 C.3     1  UNL1        0.0178
     23 C         144.3861  139.4906  164.7125 C.3     1  UNL1        0.0652
     24 N         144.8494  139.8691  163.3370 N.3     1  UNL1       -0.3211
     25 H         144.3668  139.2950  162.6457 H       1  UNL1        0.1189
     26 H         145.8552  139.7167  163.2631 H       1  UNL1        0.1189
@<TRIPOS>BOND
     1     2     3    1
     2     3     4   ar
     3     4     5   ar
     4     5     6   ar
     5     6     7   ar
     6     7     1    1
     7     1    21    1
     8    21    22    1
     9    22    23    1
    10    23    24    1
    11     1     9    1
    12     9    10   ar
    13    10    11   ar
    14    11    12   ar
    15    12    13   ar
    16    13    14   ar
    17     1    15    1
    18    15    16   ar
    19    16    17   ar
    20    17    18   ar
    21    18    19   ar
    22    19    20   ar
    23     7     8   ar
    24     8     3   ar
    25    14     9   ar
    26    20    15   ar
    27    24    25    1
    28    24    26    1
@<TRIPOS>MOLECULE
*****
 26 28 0 0 0
SMALL
GASTEIGER

@<TRIPOS>ATOM
      1 C         141.1464  141.5946  165.1045 C.3     1  UNL1        0.0564
      2 C         143.1095  143.2657  160.5930 C.3     1  UNL1        0.0310
      3 C         143.1093  143.2762  162.0929 C.ar    1  UNL1       -0.0221
      4 C         144.0903  144.1327  162.8371 C.ar    1  UNL1       -0.0043
      5 C         144.0901  144.1432  164.3370 C.ar    1  UNL1       -0.0006
      6 C         143.1088  143.2972  165.0928 C.ar    1  UNL1       -0.0037
      7 C         142.1278  142.4407  164.3487 C.ar    1  UNL1       -0.0155
      8 C         142.1280  142.4302  162.8487 C.ar    1  UNL1       -0.0079
      9 C         140.0290  142.4880  164.6537 C.ar    1  UNL1       -0.0152
     10 C         139.6397  143.6775  165.4805 C.ar    1  UNL1       -0.0037
     11 C         138.5224  144.5710  165.0297 C.ar    1  UNL1       -0.0003
     12 C         137.7943  144.2749  163.7521 C.ar    1  UNL1       -0.0000
     13 C         138.1835  143.0855  162.9253 C.ar    1  UNL1       -0.0003
     14 C         139.3010  142.1920  163.3761 C.ar    1  UNL1       -0.0037
     15 C         140.1651  140.7486  165.8602 C.ar    1  UNL1       -0.0152
     16 C         140.1839  140.7367  167.3601 C.ar    1  UNL1       -0.0037
     17 C         139.2026  139.8908  168.1159 C.ar    1  UNL1       -0.0003
     18 C         138.2023  139.0566  167.3718 C.ar    1  UNL1       -0.0000
     19 C         138.1834  139.0684  165.8720 C.ar    1  UNL1       -0.0003
     20 C         139.1648  139.9144  165.1162 C.ar    1  UNL1       -0.0037
     21 C         142.2638  140.7012  165.5553 C.3     1  UNL1        0.0136
     22 C         142.7059  139.5584  164.6900 C.3     1  UNL1        0.0178
     23 C         144.1683  139.3004  164.4779 C.3     1  UNL1        0.0652
     24 N         144.7398  139.3193  163.0912 N.3     1  UNL1       -0.3211
     25 H         144.3501  138.5460  162.5523 H       1  UNL1        0.1189
     26 H         145.7541  139.2226  163.1401 H       1  UNL1        0.1189
@<TRIPOS>BOND
     1     2     3    1
     2     3     4   ar
     3     4     5   ar
     4     5     6   ar
     5     6     7   ar
     6     7     1    1
     7     1    21    1
     8    21    22    1
     9    22    23    1
    10    23    24    1
    11     1     9    1
    12     9    10   ar
    13    10    11   ar
    14    11    12   ar
    15    12    13   ar
    16    13    14   ar
    17     1    15    1
    18    15    16   ar
    19    16    17   ar
    20    17    18   ar
    21    18    19   ar
    22    19    20   ar
    23     7     8   ar
    24     8     3   ar
    25    14     9   ar
    26    20    15   ar
    27    24    25    1
    28    24    26    1
