@<TRIPOS>MOLECULE
*****
 20 23 0 0 0
SMALL
GASTEIGER

@<TRIPOS>ATOM
      1 N         142.8976  138.0079  170.4956 N.pl3   1  UNL1       -0.3375
      2 C         142.5475  138.9571  169.3881 C.ar    1  UNL1        0.1567
      3 N         143.1638  138.9825  168.0208 N.ar    1  UNL1       -0.2245
      4 C         142.5168  140.0886  167.2412 C.ar    1  UNL1        0.0889
      5 C         142.7217  140.5815  165.8393 C.ar    1  UNL1        0.0151
      6 C         141.9103  141.7327  165.3230 C.ar    1  UNL1       -0.0232
      7 C         140.8942  142.3909  166.2084 C.ar    1  UNL1       -0.0241
      8 C         140.6893  141.8981  167.6102 C.ar    1  UNL1        0.0035
      9 C         141.5006  140.7469  168.1266 C.ar    1  UNL1        0.0494
     10 S         141.5196  140.0475  169.4535 S.2     1  UNL1       -0.0520
     11 C         139.9869  143.5435  165.8947 C.3     1  UNL1        0.0434
     12 C         139.8717  144.3224  164.6179 C.3     1  UNL1        0.0768
     13 N         140.6353  144.1411  163.3397 N.3     1  UNL1       -0.2734
     14 C         141.7028  143.1362  163.0224 C.3     1  UNL1        0.0768
     15 C         142.2702  142.0643  163.9051 C.3     1  UNL1        0.0434
     16 H         143.5901  137.3222  170.3557 H       1  UNL1        0.1442
     17 H         142.4349  138.0706  171.3623 H       1  UNL1        0.1442
     18 C         140.2852  145.0903  162.2322 C.3     1  UNL1        0.0576
     19 C         139.6316  146.3570  161.7650 C.3     1  UNL1        0.0173
     20 C         140.3324  145.4676  160.7812 C.3     1  UNL1        0.0173
@<TRIPOS>BOND
     1     1     2    1
     2     2     3   ar
     3     3     4   ar
     4     4     5   ar
     5     5     6   ar
     6     6     7   ar
     7     7     8   ar
     8     8     9   ar
     9     9    10   ar
    10     7    11    1
    11    11    12    1
    12    12    13    1
    13    13    18    1
    14    18    19    1
    15    19    20    1
    16    13    14    1
    17    14    15    1
    18    10     2   ar
    19    20    18    1
    20     9     4   ar
    21    15     6    1
    22     1    16    1
    23     1    17    1
@<TRIPOS>MOLECULE
*****
 20 23 0 0 0
SMALL
GASTEIGER

@<TRIPOS>ATOM
      1 N         143.5126  143.8982  171.3686 N.pl3   1  UNL1       -0.3375
      2 C         142.9227  143.2037  170.1771 C.ar    1  UNL1        0.1567
      3 N         143.6835  142.6833  168.9937 N.ar    1  UNL1       -0.2245
      4 C         142.6993  142.0656  168.0451 C.ar    1  UNL1        0.0889
      5 C         142.8730  141.3949  166.7147 C.ar    1  UNL1        0.0151
      6 C         141.6775  140.8627  165.9814 C.ar    1  UNL1       -0.0232
      7 C         140.3085  141.0013  166.5785 C.ar    1  UNL1       -0.0241
      8 C         140.1348  141.6721  167.9088 C.ar    1  UNL1        0.0035
      9 C         141.3303  142.2043  168.6422 C.ar    1  UNL1        0.0494
     10 S         141.4683  142.9076  169.9598 S.2     1  UNL1       -0.0520
     11 C         138.9936  140.5447  166.0192 C.3     1  UNL1        0.0434
     12 C         138.7232  139.8368  164.7247 C.3     1  UNL1        0.0768
     13 N         139.7006  139.4106  163.6699 N.3     1  UNL1       -0.2734
     14 C         141.1901  139.5870  163.6489 C.3     1  UNL1        0.0768
     15 C         142.0699  140.2333  164.6776 C.3     1  UNL1        0.0434
     16 H         144.4844  144.0474  171.4203 H       1  UNL1        0.1442
     17 H         142.9280  144.2049  172.0990 H       1  UNL1        0.1442
     18 C         139.1107  138.7161  162.4784 C.3     1  UNL1        0.0576
     19 C         137.9220  138.1415  161.7664 C.3     1  UNL1        0.0173
     20 C         139.2776  138.0877  161.1266 C.3     1  UNL1        0.0173
@<TRIPOS>BOND
     1     1     2    1
     2     2     3   ar
     3     3     4   ar
     4     4     5   ar
     5     5     6   ar
     6     6     7   ar
     7     7     8   ar
     8     8     9   ar
     9     9    10   ar
    10     7    11    1
    11    11    12    1
    12    12    13    1
    13    13    18    1
    14    18    19    1
    15    19    20    1
    16    13    14    1
    17    14    15    1
    18    10     2   ar
    19    20    18    1
    20     9     4   ar
    21    15     6    1
    22     1    16    1
    23     1    17    1
@<TRIPOS>MOLECULE
*****
 20 23 0 0 0
SMALL
GASTEIGER

@<TRIPOS>ATOM
      1 N         142.6879  140.2574  171.7873 N.pl3   1  UNL1       -0.3375
      2 C         142.1533  140.1677  170.3886 C.ar    1  UNL1        0.1567
      3 N         142.9727  140.0745  169.1357 N.ar    1  UNL1       -0.2245
      4 C         142.0312  140.0046  167.9702 C.ar    1  UNL1        0.0889
      5 C         142.2689  139.9019  166.4927 C.ar    1  UNL1        0.0151
      6 C         141.1050  139.8492  165.5477 C.ar    1  UNL1       -0.0232
      7 C         139.7038  139.8993  166.0802 C.ar    1  UNL1       -0.0241
      8 C         139.4660  140.0020  167.5577 C.ar    1  UNL1        0.0035
      9 C         140.6298  140.0547  168.5027 C.ar    1  UNL1        0.0494
     10 S         140.7052  140.1555  169.9974 S.2     1  UNL1       -0.0520
     11 C         138.4119  139.8603  165.3188 C.3     1  UNL1        0.0434
     12 C         138.2025  139.7617  163.8367 C.3     1  UNL1        0.0768
     13 N         139.2331  139.6777  162.7502 N.3     1  UNL1       -0.2734
     14 C         140.7278  139.6715  162.8772 C.3     1  UNL1        0.0768
     15 C         141.5609  139.7479  164.1222 C.3     1  UNL1        0.0434
     16 H         143.6599  140.2584  171.9436 H       1  UNL1        0.1442
     17 H         142.0668  140.3153  172.5489 H       1  UNL1        0.1442
     18 C         138.6985  139.5880  161.3516 C.3     1  UNL1        0.0576
     19 C         138.8518  139.1392  159.9285 C.3     1  UNL1        0.0173
     20 C         137.6190  139.8813  160.3521 C.3     1  UNL1        0.0173
@<TRIPOS>BOND
     1     1     2    1
     2     2     3   ar
     3     3     4   ar
     4     4     5   ar
     5     5     6   ar
     6     6     7   ar
     7     7     8   ar
     8     8     9   ar
     9     9    10   ar
    10     7    11    1
    11    11    12    1
    12    12    13    1
    13    13    18    1
    14    18    19    1
    15    19    20    1
    16    13    14    1
    17    14    15    1
    18    10     2   ar
    19    20    18    1
    20     9     4   ar
    21    15     6    1
    22     1    16    1
    23     1    17    1
@<TRIPOS>MOLECULE
*****
 20 23 0 0 0
SMALL
GASTEIGER

@<TRIPOS>ATOM
      1 N         140.3570  140.2018  171.7694 N.pl3   1  UNL1       -0.3375
      2 C         140.6816  139.9993  170.3190 C.ar    1  UNL1        0.1567
      3 N         139.6966  139.9914  169.1877 N.ar    1  UNL1       -0.2245
      4 C         140.4544  139.7564  167.9148 C.ar    1  UNL1        0.0889
      5 C         140.0088  139.6497  166.4865 C.ar    1  UNL1        0.0151
      6 C         141.0167  139.4056  165.4027 C.ar    1  UNL1       -0.0232
      7 C         142.4700  139.2682  165.7472 C.ar    1  UNL1       -0.0241
      8 C         142.9157  139.3749  167.1754 C.ar    1  UNL1        0.0035
      9 C         141.9079  139.6190  168.2593 C.ar    1  UNL1        0.0494
     10 S         142.0482  139.7691  169.7451 S.2     1  UNL1       -0.0520
     11 C         143.6301  139.0242  164.8280 C.3     1  UNL1        0.0434
     12 C         143.6231  138.8573  163.3372 C.3     1  UNL1        0.0768
     13 N         142.4545  138.8932  162.3977 N.3     1  UNL1       -0.2734
     14 C         141.0041  139.1049  162.7166 C.3     1  UNL1        0.0768
     15 C         140.3642  139.3329  164.0539 C.3     1  UNL1        0.0434
     16 H         139.4244  140.3464  172.0496 H       1  UNL1        0.1442
     17 H         141.0766  140.1902  172.4411 H       1  UNL1        0.1442
     18 C         142.7791  138.6907  160.9473 C.3     1  UNL1        0.0576
     19 C         142.8767  137.7906  159.7513 C.3     1  UNL1        0.0173
     20 C         143.2437  139.2401  159.6310 C.3     1  UNL1        0.0173
@<TRIPOS>BOND
     1     1     2    1
     2     2     3   ar
     3     3     4   ar
     4     4     5   ar
     5     5     6   ar
     6     6     7   ar
     7     7     8   ar
     8     8     9   ar
     9     9    10   ar
    10     7    11    1
    11    11    12    1
    12    12    13    1
    13    13    18    1
    14    18    19    1
    15    19    20    1
    16    13    14    1
    17    14    15    1
    18    10     2   ar
    19    20    18    1
    20     9     4   ar
    21    15     6    1
    22     1    16    1
    23     1    17    1
@<TRIPOS>MOLECULE
*****
 20 23 0 0 0
SMALL
GASTEIGER

@<TRIPOS>ATOM
      1 N         139.2154  143.2451  171.6011 N.pl3   1  UNL1       -0.3375
      2 C         139.7052  142.5954  170.3410 C.ar    1  UNL1        0.1567
      3 N         139.3001  141.2443  169.8305 N.ar    1  UNL1       -0.2245
      4 C         140.0306  140.9967  168.5442 C.ar    1  UNL1        0.0889
      5 C         140.0265  139.8350  167.5952 C.ar    1  UNL1        0.0151
      6 C         140.8790  139.8714  166.3615 C.ar    1  UNL1       -0.0232
      7 C         141.7356  141.0693  166.0769 C.ar    1  UNL1       -0.0241
      8 C         141.7398  142.2309  167.0258 C.ar    1  UNL1        0.0035
      9 C         140.8873  142.1946  168.2595 C.ar    1  UNL1        0.0494
     10 S         140.6861  143.1827  169.3700 S.2     1  UNL1       -0.0520
     11 C         142.6527  141.3083  164.9141 C.3     1  UNL1        0.0434
     12 C         142.9396  140.4082  163.7489 C.3     1  UNL1        0.0768
     13 N         142.3803  139.0471  163.4587 N.3     1  UNL1       -0.2734
     14 C         141.3960  138.2496  164.2619 C.3     1  UNL1        0.0768
     15 C         140.7278  138.6164  165.5538 C.3     1  UNL1        0.0434
     16 H         138.5677  142.7774  172.1765 H       1  UNL1        0.1442
     17 H         139.5416  144.1393  171.8529 H       1  UNL1        0.1442
     18 C         142.8701  138.3974  162.1985 C.3     1  UNL1        0.0576
     19 C         143.9951  137.8452  161.3741 C.3     1  UNL1        0.0173
     20 C         142.5935  137.8241  160.8402 C.3     1  UNL1        0.0173
@<TRIPOS>BOND
     1     1     2    1
     2     2     3   ar
     3     3     4   ar
     4     4     5   ar
     5     5     6   ar
     6     6     7   ar
     7     7     8   ar
     8     8     9   ar
     9     9    10   ar
    10     7    11    1
    11    11    12    1
    12    12    13    1
    13    13    18    1
    14    18    19    1
    15    19    20    1
    16    13    14    1
    17    14    15    1
    18    10     2   ar
    19    20    18    1
    20     9     4   ar
    21    15     6    1
    22     1    16    1
    23     1    17    1
@<TRIPOS>MOLECULE
*****
 20 23 0 0 0
SMALL
GASTEIGER

@<TRIPOS>ATOM
      1 N         140.5706  140.4890  171.7844 N.pl3   1  UNL1       -0.3375
      2 C         140.3128  140.6408  170.3145 C.ar    1  UNL1        0.1567
      3 N         139.5414  139.6868  169.4514 N.ar    1  UNL1       -0.2245
      4 C         139.5330  140.2296  168.0532 C.ar    1  UNL1        0.0889
      5 C         138.9266  139.7163  166.7808 C.ar    1  UNL1        0.0151
      6 C         139.0866  140.4926  165.5073 C.ar    1  UNL1       -0.0232
      7 C         139.8528  141.7821  165.5061 C.ar    1  UNL1       -0.0241
      8 C         140.4592  142.2954  166.7784 C.ar    1  UNL1        0.0035
      9 C         140.2993  141.5192  168.0520 C.ar    1  UNL1        0.0494
     10 S         140.7812  141.7732  169.4496 S.2     1  UNL1       -0.0520
     11 C         140.1290  142.7048  164.3562 C.3     1  UNL1        0.0434
     12 C         139.7072  142.5658  162.9234 C.3     1  UNL1        0.0768
     13 N         138.9050  141.4700  162.2868 N.3     1  UNL1       -0.2734
     14 C         138.3264  140.2422  162.9256 C.3     1  UNL1        0.0768
     15 C         138.4072  139.8073  164.3589 C.3     1  UNL1        0.0434
     16 H         140.2196  139.7062  172.2674 H       1  UNL1        0.1442
     17 H         141.0907  141.1721  172.2661 H       1  UNL1        0.1442
     18 C         138.6472  141.6218  160.8169 C.3     1  UNL1        0.0576
     19 C         138.3415  141.0104  159.4817 C.3     1  UNL1        0.0173
     20 C         138.5064  142.4961  159.6062 C.3     1  UNL1        0.0173
@<TRIPOS>BOND
     1     1     2    1
     2     2     3   ar
     3     3     4   ar
     4     4     5   ar
     5     5     6   ar
     6     6     7   ar
     7     7     8   ar
     8     8     9   ar
     9     9    10   ar
    10     7    11    1
    11    11    12    1
    12    12    13    1
    13    13    18    1
    14    18    19    1
    15    19    20    1
    16    13    14    1
    17    14    15    1
    18    10     2   ar
    19    20    18    1
    20     9     4   ar
    21    15     6    1
    22     1    16    1
    23     1    17    1
@<TRIPOS>MOLECULE
*****
 20 23 0 0 0
SMALL
GASTEIGER

@<TRIPOS>ATOM
      1 N         140.3532  140.2581  171.8424 N.pl3   1  UNL1       -0.3375
      2 C         140.7001  140.0657  170.3958 C.ar    1  UNL1        0.1567
      3 N         142.0361  139.6466  169.8576 N.ar    1  UNL1       -0.2245
      4 C         141.9336  139.5804  168.3627 C.ar    1  UNL1        0.0889
      5 C         142.9337  139.2246  167.3028 C.ar    1  UNL1        0.0151
      6 C         142.5344  139.2470  165.8571 C.ar    1  UNL1       -0.0232
      7 C         141.1351  139.6251  165.4713 C.ar    1  UNL1       -0.0241
      8 C         140.1350  139.9809  166.5310 C.ar    1  UNL1        0.0035
      9 C         140.5342  139.9585  167.9768 C.ar    1  UNL1        0.0494
     10 S         139.7720  140.2584  169.2334 S.2     1  UNL1       -0.0520
     11 C         140.5338  139.7104  164.0997 C.3     1  UNL1        0.0434
     12 C         141.1834  139.4386  162.7751 C.3     1  UNL1        0.0768
     13 N         142.5946  139.0144  162.4952 N.3     1  UNL1       -0.2734
     14 C         143.7049  138.7573  163.4705 C.3     1  UNL1        0.0768
     15 C         143.6781  138.8608  164.9667 C.3     1  UNL1        0.0434
     16 H         141.0348  140.1064  172.5365 H       1  UNL1        0.1442
     17 H         139.4440  140.5362  172.0978 H       1  UNL1        0.1442
     18 C         142.9415  138.8220  161.0486 C.3     1  UNL1        0.0576
     19 C         143.5185  139.3519  159.7694 C.3     1  UNL1        0.0173
     20 C         142.9654  137.9586  159.8222 C.3     1  UNL1        0.0173
@<TRIPOS>BOND
     1     1     2    1
     2     2     3   ar
     3     3     4   ar
     4     4     5   ar
     5     5     6   ar
     6     6     7   ar
     7     7     8   ar
     8     8     9   ar
     9     9    10   ar
    10     7    11    1
    11    11    12    1
    12    12    13    1
    13    13    18    1
    14    18    19    1
    15    19    20    1
    16    13    14    1
    17    14    15    1
    18    10     2   ar
    19    20    18    1
    20     9     4   ar
    21    15     6    1
    22     1    16    1
    23     1    17    1
@<TRIPOS>MOLECULE
*****
 20 23 0 0 0
SMALL
GASTEIGER

@<TRIPOS>ATOM
      1 N         142.3679  142.4381  171.8165 N.pl3   1  UNL1       -0.3375
      2 C         142.4885  141.9709  170.3962 C.ar    1  UNL1        0.1567
      3 N         142.9104  142.8082  169.2253 N.ar    1  UNL1       -0.2245
      4 C         142.8909  141.9391  168.0029 C.ar    1  UNL1        0.0889
      5 C         143.2123  142.2218  166.5653 C.ar    1  UNL1        0.0151
      6 C         143.0997  141.1298  165.5429 C.ar    1  UNL1       -0.0232
      7 C         142.6657  139.7555  165.9583 C.ar    1  UNL1       -0.0241
      8 C         142.3444  139.4728  167.3959 C.ar    1  UNL1        0.0035
      9 C         142.4569  140.5646  168.4183 C.ar    1  UNL1        0.0494
     10 S         142.2082  140.5843  169.8974 S.2     1  UNL1       -0.0520
     11 C         142.4894  138.5331  165.1068 C.3     1  UNL1        0.0434
     12 C         142.7035  138.3835  163.6297 C.3     1  UNL1        0.0768
     13 N         143.1467  139.4191  162.6394 N.3     1  UNL1       -0.2734
     14 C         143.4854  140.8602  162.8813 C.3     1  UNL1        0.0768
     15 C         143.4645  141.6215  164.1736 C.3     1  UNL1        0.0434
     16 H         142.5750  143.3727  172.0465 H       1  UNL1        0.1442
     17 H         142.0817  141.8102  172.5186 H       1  UNL1        0.1442
     18 C         143.2673  138.9518  161.2191 C.3     1  UNL1        0.0576
     19 C         143.5723  139.2386  159.7786 C.3     1  UNL1        0.0173
     20 C         143.1711  137.8558  160.1995 C.3     1  UNL1        0.0173
@<TRIPOS>BOND
     1     1     2    1
     2     2     3   ar
     3     3     4   ar
     4     4     5   ar
     5     5     6   ar
     6     6     7   ar
     7     7     8   ar
     8     8     9   ar
     9     9    10   ar
    10     7    11    1
    11    11    12    1
    12    12    13    1
    13    13    18    1
    14    18    19    1
    15    19    20    1
    16    13    14    1
    17    14    15    1
    18    10     2   ar
    19    20    18    1
    20     9     4   ar
    21    15     6    1
    22     1    16    1
    23     1    17    1
@<TRIPOS>MOLECULE
*****
 20 23 0 0 0
SMALL
GASTEIGER

@<TRIPOS>ATOM
      1 N         141.5302  145.3801  159.2230 N.pl3   1  UNL1       -0.3375
      2 C         141.5813  144.8631  160.6302 C.ar    1  UNL1        0.1567
      3 N         142.8085  144.3906  161.3519 N.ar    1  UNL1       -0.2245
      4 C         142.3999  143.9634  162.7305 C.ar    1  UNL1        0.0889
      5 C         143.1841  143.4114  163.8839 C.ar    1  UNL1        0.0151
      6 C         142.4885  143.0680  165.1678 C.ar    1  UNL1       -0.0232
      7 C         141.0089  143.2765  165.2981 C.ar    1  UNL1       -0.0241
      8 C         140.2246  143.8284  164.1447 C.ar    1  UNL1        0.0035
      9 C         140.9202  144.1719  162.8609 C.ar    1  UNL1        0.0494
     10 S         140.4143  144.7279  161.5628 S.2     1  UNL1       -0.0520
     11 C         140.1262  143.0023  166.4796 C.3     1  UNL1        0.0434
     12 C         140.5054  142.4519  167.8226 C.3     1  UNL1        0.0768
     13 N         141.8607  142.0398  168.3156 N.3     1  UNL1       -0.2734
     14 C         143.1717  142.0763  167.5876 C.3     1  UNL1        0.0768
     15 C         143.4511  142.5338  166.1867 C.3     1  UNL1        0.0434
     16 H         142.3544  145.4312  158.6871 H       1  UNL1        0.1442
     17 H         140.6723  145.6682  158.8354 H       1  UNL1        0.1442
     18 C         141.9119  141.5229  169.7228 C.3     1  UNL1        0.0576
     19 C         142.3307  140.4698  170.7054 C.3     1  UNL1        0.0173
     20 C         141.5816  141.6806  171.1775 C.3     1  UNL1        0.0173
@<TRIPOS>BOND
     1     1     2    1
     2     2     3   ar
     3     3     4   ar
     4     4     5   ar
     5     5     6   ar
     6     6     7   ar
     7     7     8   ar
     8     8     9   ar
     9     9    10   ar
    10     7    11    1
    11    11    12    1
    12    12    13    1
    13    13    18    1
    14    18    19    1
    15    19    20    1
    16    13    14    1
    17    14    15    1
    18    10     2   ar
    19    20    18    1
    20     9     4   ar
    21    15     6    1
    22     1    16    1
    23     1    17    1
