@<TRIPOS>MOLECULE
*****
 38 43 0 0 0
SMALL
GASTEIGER

@<TRIPOS>ATOM
      1 C         141.6306  139.4121  161.4619 C.2     1  UNL1        0.2495
      2 O         142.6689  139.1829  162.5200 O.2     1  UNL1       -0.2698
      3 N         140.1902  139.5750  161.8472 N.am    1  UNL1       -0.2804
      4 H         139.5088  139.7255  161.1527 H       1  UNL1        0.1552
      5 C         143.2398  139.6775  155.6877 C.3     1  UNL1        0.0317
      6 C         142.8375  139.6111  157.1312 C.ar    1  UNL1       -0.0142
      7 C         142.7603  140.8676  157.9468 C.ar    1  UNL1       -0.0035
      8 C         142.3580  140.8014  159.3903 C.ar    1  UNL1        0.0042
      9 C         142.0329  139.4785  160.0183 C.ar    1  UNL1        0.0543
     10 C         142.1101  138.2220  159.2027 C.ar    1  UNL1        0.0124
     11 C         142.5124  138.2883  157.7592 C.ar    1  UNL1        0.0382
     12 C         142.5895  137.0318  156.9436 C.1     1  UNL1       -0.0585
     13 C         142.6667  135.7752  156.1281 C.1     1  UNL1       -0.0388
     14 C         142.7439  134.5187  155.3125 C.ar    1  UNL1        0.1451
     15 C         142.0644  134.2783  153.9970 C.ar    1  UNL1        0.1281
     16 N         142.4147  132.8930  153.5407 N.ar    1  UNL1       -0.2228
     17 C         143.3107  132.2772  154.5742 C.ar    1  UNL1        0.1646
     18 C         143.9675  130.9314  154.6596 C.ar    1  UNL1        0.0405
     19 C         144.8279  130.5904  155.8401 C.ar    1  UNL1        0.0256
     20 C         145.0313  131.5951  156.9351 C.ar    1  UNL1        0.1207
     21 N         144.3745  132.9409  156.8497 N.ar    1  UNL1       -0.1616
     22 N         143.5141  133.2819  155.6692 N.ar    1  UNL1       -0.2030
     23 C         139.7879  139.5087  163.2907 C.ar    1  UNL1        0.0514
     24 C         139.9752  140.7040  164.1773 C.ar    1  UNL1        0.0145
     25 C         139.5729  140.6377  165.6208 C.ar    1  UNL1       -0.0008
     26 C         138.9832  139.3759  166.1778 C.ar    1  UNL1        0.0045
     27 C         138.7959  138.1805  165.2914 C.ar    1  UNL1        0.0562
     28 CL        138.2063  136.9188  165.8483 Cl      1  UNL1       -0.0825
     29 C         139.1982  138.2469  163.8478 C.ar    1  UNL1        0.0258
     30 C         138.5810  139.3096  167.6213 C.3     1  UNL1        0.1003
     31 N         139.4025  140.0113  168.6619 N.3     1  UNL1       -0.2633
     32 C         140.8995  140.0999  168.6911 C.3     1  UNL1        0.0987
     33 C         141.2935  140.8910  169.9031 C.2     1  UNL1        0.0177
     34 C         142.4622  141.4347  170.6702 C.2     1  UNL1        0.1165
     35 N         141.9309  142.1710  171.8642 N.2     1  UNL1       -0.1513
     36 N         140.4338  142.0824  171.8349 N.2     1  UNL1       -0.1708
     37 C         140.0399  141.2913  170.6229 C.3     1  UNL1        0.1621
     38 C         138.8711  140.7476  169.8558 C.3     1  UNL1        0.1034
@<TRIPOS>BOND
     1     5     6    1
     2     6     7   ar
     3     7     8   ar
     4     8     9   ar
     5     9     1    1
     6     1     2    2
     7     1     3   am
     8     3    23    1
     9    23    24   ar
    10    24    25   ar
    11    25    26   ar
    12    26    30    1
    13    30    31    1
    14    31    32    1
    15    32    33    1
    16    33    34    2
    17    34    35    1
    18    35    36    2
    19    36    37    1
    20    37    38    1
    21    26    27   ar
    22    27    28    1
    23    27    29   ar
    24     9    10   ar
    25    10    11   ar
    26    11    12    1
    27    12    13    3
    28    13    14    1
    29    14    15   ar
    30    15    16   ar
    31    16    17   ar
    32    17    18   ar
    33    18    19   ar
    34    19    20   ar
    35    20    21   ar
    36    21    22   ar
    37    11     6   ar
    38    22    14   ar
    39    29    23   ar
    40    22    17   ar
    41    38    31    1
    42    37    33    1
    43     3     4    1
@<TRIPOS>MOLECULE
*****
 38 43 0 0 0
SMALL
GASTEIGER

@<TRIPOS>ATOM
      1 C         142.5962  141.9814  160.3633 C.2     1  UNL1        0.2495
      2 O         142.2317  143.4361  160.3965 O.2     1  UNL1       -0.2698
      3 N         142.3694  141.1234  161.5726 N.am    1  UNL1       -0.2804
      4 H         142.6087  140.1687  161.5507 H       1  UNL1        0.1552
      5 C         144.9622  139.5947  155.3927 C.3     1  UNL1        0.0317
      6 C         144.3707  140.1914  156.6354 C.ar    1  UNL1       -0.0142
      7 C         144.7288  141.5909  157.0392 C.ar    1  UNL1       -0.0035
      8 C         144.1374  142.1876  158.2817 C.ar    1  UNL1        0.0042
      9 C         143.1877  141.3848  159.1207 C.ar    1  UNL1        0.0543
     10 C         142.8296  139.9852  158.7168 C.ar    1  UNL1        0.0124
     11 C         143.4211  139.3886  157.4742 C.ar    1  UNL1        0.0382
     12 C         143.0630  137.9890  157.0704 C.1     1  UNL1       -0.0585
     13 C         142.7049  136.5895  156.6665 C.1     1  UNL1       -0.0388
     14 C         142.3468  135.1900  156.2626 C.ar    1  UNL1        0.1451
     15 C         141.2227  134.7957  155.3511 C.ar    1  UNL1        0.1281
     16 N         141.2311  133.3010  155.2246 N.ar    1  UNL1       -0.2228
     17 C         142.3604  132.7716  156.0579 C.ar    1  UNL1        0.1646
     18 C         142.8499  131.3773  156.3155 C.ar    1  UNL1        0.0405
     19 C         144.0289  131.1505  157.2146 C.ar    1  UNL1        0.0256
     20 C         144.7184  132.3180  157.8561 C.ar    1  UNL1        0.1207
     21 N         144.2289  133.7122  157.5986 N.ar    1  UNL1       -0.1616
     22 N         143.0499  133.9390  156.6995 N.ar    1  UNL1       -0.2030
     23 C         141.7779  141.7201  162.8152 C.ar    1  UNL1        0.0514
     24 C         142.6691  142.3631  163.8361 C.ar    1  UNL1        0.0145
     25 C         142.0776  142.9597  165.0787 C.ar    1  UNL1       -0.0008
     26 C         140.5948  142.9134  165.3005 C.ar    1  UNL1        0.0045
     27 C         139.7035  142.2704  164.2796 C.ar    1  UNL1        0.0562
     28 CL        138.2208  142.2240  164.5013 Cl      1  UNL1       -0.0825
     29 C         140.2951  141.6737  163.0370 C.ar    1  UNL1        0.0258
     30 C         140.0033  143.5101  166.5431 C.3     1  UNL1        0.1003
     31 N         140.1694  142.8143  167.8615 N.3     1  UNL1       -0.2633
     32 C         140.1992  141.3302  168.0776 C.3     1  UNL1        0.0987
     33 C         140.3830  141.0791  169.5449 C.2     1  UNL1        0.0177
     34 C         140.5150  140.0067  170.5854 C.2     1  UNL1        0.1165
     35 N         140.6804  140.6727  171.9192 N.2     1  UNL1       -0.1513
     36 N         140.6506  142.1568  171.7031 N.2     1  UNL1       -0.1708
     37 C         140.4668  142.4079  170.2358 C.3     1  UNL1        0.1621
     38 C         140.3347  143.4803  169.1953 C.3     1  UNL1        0.1034
@<TRIPOS>BOND
     1     5     6    1
     2     6     7   ar
     3     7     8   ar
     4     8     9   ar
     5     9     1    1
     6     1     2    2
     7     1     3   am
     8     3    23    1
     9    23    24   ar
    10    24    25   ar
    11    25    26   ar
    12    26    30    1
    13    30    31    1
    14    31    32    1
    15    32    33    1
    16    33    34    2
    17    34    35    1
    18    35    36    2
    19    36    37    1
    20    37    38    1
    21    26    27   ar
    22    27    28    1
    23    27    29   ar
    24     9    10   ar
    25    10    11   ar
    26    11    12    1
    27    12    13    3
    28    13    14    1
    29    14    15   ar
    30    15    16   ar
    31    16    17   ar
    32    17    18   ar
    33    18    19   ar
    34    19    20   ar
    35    20    21   ar
    36    21    22   ar
    37    11     6   ar
    38    22    14   ar
    39    29    23   ar
    40    22    17   ar
    41    38    31    1
    42    37    33    1
    43     3     4    1
@<TRIPOS>MOLECULE
*****
 38 43 0 0 0
SMALL
GASTEIGER

@<TRIPOS>ATOM
      1 C         143.0446  141.1185  160.6072 C.2     1  UNL1        0.2495
      2 O         141.9936  142.1351  160.9419 O.2     1  UNL1       -0.2698
      3 N         143.9102  140.5495  161.6921 N.am    1  UNL1       -0.2804
      4 H         144.5999  139.8822  161.4724 H       1  UNL1        0.1552
      5 C         143.7860  139.3281  154.9287 C.3     1  UNL1        0.0317
      6 C         143.6006  139.7757  156.3483 C.ar    1  UNL1       -0.0142
      7 C         143.8369  141.2097  156.7196 C.ar    1  UNL1       -0.0035
      8 C         143.6516  141.6573  158.1391 C.ar    1  UNL1        0.0042
      9 C         143.2299  140.6709  159.1876 C.ar    1  UNL1        0.0543
     10 C         142.9936  139.2369  158.8164 C.ar    1  UNL1        0.0124
     11 C         143.1790  138.7894  157.3968 C.ar    1  UNL1        0.0382
     12 C         142.9427  137.3554  157.0255 C.1     1  UNL1       -0.0585
     13 C         142.7064  135.9213  156.6542 C.1     1  UNL1       -0.0388
     14 C         142.4701  134.4873  156.2830 C.ar    1  UNL1        0.1451
     15 C         141.3937  133.9787  155.3706 C.ar    1  UNL1        0.1281
     16 N         141.5271  132.4872  155.2827 N.ar    1  UNL1       -0.2228
     17 C         142.6860  132.0741  156.1409 C.ar    1  UNL1        0.1646
     18 C         143.2858  130.7320  156.4392 C.ar    1  UNL1        0.0405
     19 C         144.4684  130.6261  157.3557 C.ar    1  UNL1        0.0256
     20 C         145.0513  131.8623  157.9740 C.ar    1  UNL1        0.1207
     21 N         144.4514  133.2044  157.6756 N.ar    1  UNL1       -0.1616
     22 N         143.2688  133.3103  156.7591 N.ar    1  UNL1       -0.2030
     23 C         143.7248  140.9970  163.1117 C.ar    1  UNL1        0.0514
     24 C         142.8758  140.1894  164.0480 C.ar    1  UNL1        0.0145
     25 C         142.6904  140.6369  165.4676 C.ar    1  UNL1       -0.0008
     26 C         143.3542  141.8923  165.9510 C.ar    1  UNL1        0.0045
     27 C         144.2033  142.7000  165.0147 C.ar    1  UNL1        0.0562
     28 CL        144.8670  143.9553  165.4980 Cl      1  UNL1       -0.0825
     29 C         144.3886  142.2524  163.5951 C.ar    1  UNL1        0.0258
     30 C         143.1688  142.3398  167.3706 C.3     1  UNL1        0.1003
     31 N         142.1614  141.6564  168.2470 N.3     1  UNL1       -0.2633
     32 C         140.6952  141.9660  168.3120 C.3     1  UNL1        0.0987
     33 C         140.0710  141.0444  169.3174 C.2     1  UNL1        0.0177
     34 C         138.7790  140.6661  169.9790 C.2     1  UNL1        0.1165
     35 N         139.0610  139.5530  170.9441 N.2     1  UNL1       -0.1513
     36 N         140.5272  139.2434  170.8791 N.2     1  UNL1       -0.1708
     37 C         141.1514  140.1651  169.8737 C.3     1  UNL1        0.1621
     38 C         142.4434  140.5433  169.2121 C.3     1  UNL1        0.1034
@<TRIPOS>BOND
     1     5     6    1
     2     6     7   ar
     3     7     8   ar
     4     8     9   ar
     5     9     1    1
     6     1     2    2
     7     1     3   am
     8     3    23    1
     9    23    24   ar
    10    24    25   ar
    11    25    26   ar
    12    26    30    1
    13    30    31    1
    14    31    32    1
    15    32    33    1
    16    33    34    2
    17    34    35    1
    18    35    36    2
    19    36    37    1
    20    37    38    1
    21    26    27   ar
    22    27    28    1
    23    27    29   ar
    24     9    10   ar
    25    10    11   ar
    26    11    12    1
    27    12    13    3
    28    13    14    1
    29    14    15   ar
    30    15    16   ar
    31    16    17   ar
    32    17    18   ar
    33    18    19   ar
    34    19    20   ar
    35    20    21   ar
    36    21    22   ar
    37    11     6   ar
    38    22    14   ar
    39    29    23   ar
    40    22    17   ar
    41    38    31    1
    42    37    33    1
    43     3     4    1
@<TRIPOS>MOLECULE
*****
 38 43 0 0 0
SMALL
GASTEIGER

@<TRIPOS>ATOM
      1 C         141.5567  140.3754  160.2787 C.2     1  UNL1        0.2495
      2 O         142.9679  140.8825  160.2372 O.2     1  UNL1       -0.2698
      3 N         140.7959  140.3796  161.5714 N.am    1  UNL1       -0.2804
      4 H         139.8698  140.0468  161.5985 H       1  UNL1        0.1552
      5 C         138.9558  138.3300  155.2735 C.3     1  UNL1        0.0317
      6 C         139.6060  138.8414  156.5248 C.ar    1  UNL1       -0.0142
      7 C         139.1171  140.1093  157.1598 C.ar    1  UNL1       -0.0035
      8 C         139.7673  140.6207  158.4110 C.ar    1  UNL1        0.0042
      9 C         140.9065  139.8641  159.0274 C.ar    1  UNL1        0.0543
     10 C         141.3954  138.5961  158.3924 C.ar    1  UNL1        0.0124
     11 C         140.7452  138.0848  157.1411 C.ar    1  UNL1        0.0382
     12 C         141.2341  136.8168  156.5061 C.1     1  UNL1       -0.0585
     13 C         141.7231  135.5489  155.8711 C.1     1  UNL1       -0.0388
     14 C         142.2120  134.2809  155.2360 C.ar    1  UNL1        0.1451
     15 C         141.8122  133.7589  153.8878 C.ar    1  UNL1        0.1281
     16 N         142.5397  132.4677  153.6563 N.ar    1  UNL1       -0.2228
     17 C         143.3891  132.1917  154.8615 C.ar    1  UNL1        0.1646
     18 C         144.3207  131.0647  155.1960 C.ar    1  UNL1        0.0405
     19 C         145.0498  131.0584  156.5068 C.ar    1  UNL1        0.0256
     20 C         144.8473  132.1790  157.4831 C.ar    1  UNL1        0.1207
     21 N         143.9157  133.3059  157.1487 N.ar    1  UNL1       -0.1616
     22 N         143.1865  133.3123  155.8378 N.ar    1  UNL1       -0.2030
     23 C         141.4461  140.8909  162.8227 C.ar    1  UNL1        0.0514
     24 C         141.5033  142.3659  163.0893 C.ar    1  UNL1        0.0145
     25 C         142.1536  142.8772  164.3406 C.ar    1  UNL1       -0.0008
     26 C         142.7467  141.9135  165.3253 C.ar    1  UNL1        0.0045
     27 C         142.6895  140.4385  165.0587 C.ar    1  UNL1        0.0562
     28 CL        143.2825  139.4748  166.0433 Cl      1  UNL1       -0.0825
     29 C         142.0392  139.9273  163.8073 C.ar    1  UNL1        0.0258
     30 C         143.3969  142.4249  166.5766 C.3     1  UNL1        0.1003
     31 N         142.6493  142.3943  167.8766 N.3     1  UNL1       -0.2633
     32 C         141.1641  142.5229  168.0428 C.3     1  UNL1        0.0987
     33 C         140.8525  142.4378  169.5076 C.2     1  UNL1        0.0177
     34 C         139.7420  142.4647  170.5156 C.2     1  UNL1        0.1165
     35 N         140.3482  142.3002  171.8777 N.2     1  UNL1       -0.1513
     36 N         141.8335  142.1716  171.7115 N.2     1  UNL1       -0.1708
     37 C         142.1450  142.2566  170.2467 C.3     1  UNL1        0.1621
     38 C         143.2556  142.2297  169.2387 C.3     1  UNL1        0.1034
@<TRIPOS>BOND
     1     5     6    1
     2     6     7   ar
     3     7     8   ar
     4     8     9   ar
     5     9     1    1
     6     1     2    2
     7     1     3   am
     8     3    23    1
     9    23    24   ar
    10    24    25   ar
    11    25    26   ar
    12    26    30    1
    13    30    31    1
    14    31    32    1
    15    32    33    1
    16    33    34    2
    17    34    35    1
    18    35    36    2
    19    36    37    1
    20    37    38    1
    21    26    27   ar
    22    27    28    1
    23    27    29   ar
    24     9    10   ar
    25    10    11   ar
    26    11    12    1
    27    12    13    3
    28    13    14    1
    29    14    15   ar
    30    15    16   ar
    31    16    17   ar
    32    17    18   ar
    33    18    19   ar
    34    19    20   ar
    35    20    21   ar
    36    21    22   ar
    37    11     6   ar
    38    22    14   ar
    39    29    23   ar
    40    22    17   ar
    41    38    31    1
    42    37    33    1
    43     3     4    1
@<TRIPOS>MOLECULE
*****
 38 43 0 0 0
SMALL
GASTEIGER

@<TRIPOS>ATOM
      1 C         142.5398  139.6616  160.5598 C.2     1  UNL1        0.2495
      2 O         144.0164  139.8248  160.7675 O.2     1  UNL1       -0.2698
      3 N         141.5794  140.1022  161.6245 N.am    1  UNL1       -0.2804
      4 H         140.6103  139.9951  161.4882 H       1  UNL1        0.1552
      5 C         140.4749  137.2464  155.4703 C.3     1  UNL1        0.0317
      6 C         140.9911  137.8502  156.7427 C.ar    1  UNL1       -0.0142
      7 C         142.2165  137.2853  157.3978 C.ar    1  UNL1       -0.0035
      8 C         142.7327  137.8890  158.6701 C.ar    1  UNL1        0.0042
      9 C         142.0236  139.0578  159.2875 C.ar    1  UNL1        0.0543
     10 C         140.7982  139.6228  158.6323 C.ar    1  UNL1        0.0124
     11 C         140.2820  139.0190  157.3600 C.ar    1  UNL1        0.0382
     12 C         139.0566  139.5840  156.7048 C.1     1  UNL1       -0.0585
     13 C         137.8312  140.1490  156.0496 C.1     1  UNL1       -0.0388
     14 C         136.6058  140.7139  155.3945 C.ar    1  UNL1        0.1451
     15 C         136.5790  141.5641  154.1590 C.ar    1  UNL1        0.1281
     16 N         135.1487  141.9035  153.8608 N.ar    1  UNL1       -0.2228
     17 C         134.2914  141.2631  154.9119 C.ar    1  UNL1        0.1646
     18 C         132.8072  141.2544  155.1285 C.ar    1  UNL1        0.0405
     19 C         132.2235  140.5105  156.2928 C.ar    1  UNL1        0.0256
     20 C         133.1241  139.7753  157.2407 C.ar    1  UNL1        0.1207
     21 N         134.6083  139.7839  157.0242 N.ar    1  UNL1       -0.1616
     22 N         135.1920  140.5278  155.8598 N.ar    1  UNL1       -0.2030
     23 C         142.0956  140.7060  162.8969 C.ar    1  UNL1        0.0514
     24 C         142.3957  139.8285  164.0758 C.ar    1  UNL1        0.0145
     25 C         142.9119  140.4323  165.3482 C.ar    1  UNL1       -0.0008
     26 C         143.1281  141.9137  165.4417 C.ar    1  UNL1        0.0045
     27 C         142.8280  142.7913  164.2628 C.ar    1  UNL1        0.0562
     28 CL        143.0441  144.2727  164.3562 Cl      1  UNL1       -0.0825
     29 C         142.3118  142.1874  162.9904 C.ar    1  UNL1        0.0258
     30 C         143.6443  142.5175  166.7140 C.3     1  UNL1        0.1003
     31 N         142.8211  142.4464  167.9659 N.3     1  UNL1       -0.2633
     32 C         141.3241  142.5029  168.0411 C.3     1  UNL1        0.0987
     33 C         140.9281  142.3977  169.4840 C.2     1  UNL1        0.0177
     34 C         139.7582  142.3676  170.4223 C.2     1  UNL1        0.1165
     35 N         140.2874  142.2274  171.8188 N.2     1  UNL1       -0.1513
     36 N         141.7845  142.1708  171.7436 N.2     1  UNL1       -0.1708
     37 C         142.1804  142.2761  170.3007 C.3     1  UNL1        0.1621
     38 C         143.3504  142.3062  169.3624 C.3     1  UNL1        0.1034
@<TRIPOS>BOND
     1     5     6    1
     2     6     7   ar
     3     7     8   ar
     4     8     9   ar
     5     9     1    1
     6     1     2    2
     7     1     3   am
     8     3    23    1
     9    23    24   ar
    10    24    25   ar
    11    25    26   ar
    12    26    30    1
    13    30    31    1
    14    31    32    1
    15    32    33    1
    16    33    34    2
    17    34    35    1
    18    35    36    2
    19    36    37    1
    20    37    38    1
    21    26    27   ar
    22    27    28    1
    23    27    29   ar
    24     9    10   ar
    25    10    11   ar
    26    11    12    1
    27    12    13    3
    28    13    14    1
    29    14    15   ar
    30    15    16   ar
    31    16    17   ar
    32    17    18   ar
    33    18    19   ar
    34    19    20   ar
    35    20    21   ar
    36    21    22   ar
    37    11     6   ar
    38    22    14   ar
    39    29    23   ar
    40    22    17   ar
    41    38    31    1
    42    37    33    1
    43     3     4    1
@<TRIPOS>MOLECULE
*****
 38 43 0 0 0
SMALL
GASTEIGER

@<TRIPOS>ATOM
      1 C         142.5572  139.6855  160.4872 C.2     1  UNL1        0.2495
      2 O         144.0040  140.0596  160.6180 O.2     1  UNL1       -0.2698
      3 N         141.6086  139.9511  161.6184 N.am    1  UNL1       -0.2804
      4 H         140.6591  139.7056  161.5325 H       1  UNL1        0.1552
      5 C         140.5650  137.1260  155.4394 C.3     1  UNL1        0.0317
      6 C         141.0631  137.7659  156.7013 C.ar    1  UNL1       -0.0142
      7 C         140.5019  139.0840  157.1460 C.ar    1  UNL1       -0.0035
      8 C         140.9999  139.7238  158.4079 C.ar    1  UNL1        0.0042
      9 C         142.0592  139.0456  159.2253 C.ar    1  UNL1        0.0543
     10 C         142.6203  137.7275  158.7806 C.ar    1  UNL1        0.0124
     11 C         142.1223  137.0877  157.5187 C.ar    1  UNL1        0.0382
     12 C         142.6834  135.7696  157.0740 C.1     1  UNL1       -0.0585
     13 C         143.2447  134.4514  156.6294 C.1     1  UNL1       -0.0388
     14 C         143.8058  133.1333  156.1848 C.ar    1  UNL1        0.1451
     15 C         144.7687  132.2798  156.9557 C.ar    1  UNL1        0.1281
     16 N         145.0605  131.0564  156.1385 N.ar    1  UNL1       -0.2228
     17 C         144.2781  131.1537  154.8624 C.ar    1  UNL1        0.1646
     18 C         144.1716  130.2393  153.6782 C.ar    1  UNL1        0.0405
     19 C         143.2895  130.6087  152.5225 C.ar    1  UNL1        0.0256
     20 C         142.5141  131.8923  152.5511 C.ar    1  UNL1        0.1207
     21 N         142.6206  132.8067  153.7354 N.ar    1  UNL1       -0.1616
     22 N         143.5026  132.4374  154.8910 N.ar    1  UNL1       -0.2030
     23 C         142.1066  140.5910  162.8803 C.ar    1  UNL1        0.0514
     24 C         142.2546  142.0816  162.9576 C.ar    1  UNL1        0.0145
     25 C         142.7527  142.7215  164.2196 C.ar    1  UNL1       -0.0008
     26 C         143.1028  141.8706  165.4043 C.ar    1  UNL1        0.0045
     27 C         142.9548  140.3800  165.3270 C.ar    1  UNL1        0.0562
     28 CL        143.3049  139.5291  166.5116 Cl      1  UNL1       -0.0825
     29 C         142.4568  139.7401  164.0650 C.ar    1  UNL1        0.0258
     30 C         143.6008  142.5105  166.6662 C.3     1  UNL1        0.1003
     31 N         142.7794  142.4369  167.9192 N.3     1  UNL1       -0.2633
     32 C         141.2821  142.4842  167.9958 C.3     1  UNL1        0.0987
     33 C         140.8884  142.3797  169.4394 C.2     1  UNL1        0.0177
     34 C         139.7197  142.3443  170.3790 C.2     1  UNL1        0.1165
     35 N         140.2513  142.2105  171.7752 N.2     1  UNL1       -0.1513
     36 N         141.7485  142.1632  171.6986 N.2     1  UNL1       -0.1708
     37 C         142.1423  142.2677  170.2550 C.3     1  UNL1        0.1621
     38 C         143.3110  142.3031  169.3154 C.3     1  UNL1        0.1034
@<TRIPOS>BOND
     1     5     6    1
     2     6     7   ar
     3     7     8   ar
     4     8     9   ar
     5     9     1    1
     6     1     2    2
     7     1     3   am
     8     3    23    1
     9    23    24   ar
    10    24    25   ar
    11    25    26   ar
    12    26    30    1
    13    30    31    1
    14    31    32    1
    15    32    33    1
    16    33    34    2
    17    34    35    1
    18    35    36    2
    19    36    37    1
    20    37    38    1
    21    26    27   ar
    22    27    28    1
    23    27    29   ar
    24     9    10   ar
    25    10    11   ar
    26    11    12    1
    27    12    13    3
    28    13    14    1
    29    14    15   ar
    30    15    16   ar
    31    16    17   ar
    32    17    18   ar
    33    18    19   ar
    34    19    20   ar
    35    20    21   ar
    36    21    22   ar
    37    11     6   ar
    38    22    14   ar
    39    29    23   ar
    40    22    17   ar
    41    38    31    1
    42    37    33    1
    43     3     4    1
@<TRIPOS>MOLECULE
*****
 38 43 0 0 0
SMALL
GASTEIGER

@<TRIPOS>ATOM
      1 C         139.9831  140.2267  160.9912 C.2     1  UNL1        0.2495
      2 O         139.5459  141.5357  161.5788 O.2     1  UNL1       -0.2698
      3 N         140.3156  139.0740  161.8916 N.am    1  UNL1       -0.2804
      4 H         140.6026  138.2149  161.5059 H       1  UNL1        0.1552
      5 C         140.4022  139.6013  155.0386 C.3     1  UNL1        0.0317
      6 C         140.2975  139.7576  156.5267 C.ar    1  UNL1       -0.0142
      7 C         139.7750  141.0363  157.1116 C.ar    1  UNL1       -0.0035
      8 C         139.6702  141.1927  158.5997 C.ar    1  UNL1        0.0042
      9 C         140.0879  140.0703  159.5031 C.ar    1  UNL1        0.0543
     10 C         140.6103  138.7917  158.9182 C.ar    1  UNL1        0.0124
     11 C         140.7151  138.6354  157.4300 C.ar    1  UNL1        0.0382
     12 C         141.2375  137.3567  156.8451 C.1     1  UNL1       -0.0585
     13 C         141.7599  136.0780  156.2601 C.1     1  UNL1       -0.0388
     14 C         142.2824  134.7994  155.6753 C.ar    1  UNL1        0.1451
     15 C         141.9252  134.2331  154.3330 C.ar    1  UNL1        0.1281
     16 N         142.6758  132.9463  154.1581 N.ar    1  UNL1       -0.2228
     17 C         143.4969  132.7172  155.3924 C.ar    1  UNL1        0.1646
     18 C         144.4346  131.6137  155.7836 C.ar    1  UNL1        0.0405
     19 C         145.1291  131.6555  157.1124 C.ar    1  UNL1        0.0256
     20 C         144.8859  132.8008  158.0501 C.ar    1  UNL1        0.1207
     21 N         143.9483  133.9043  157.6589 N.ar    1  UNL1       -0.1616
     22 N         143.2538  133.8625  156.3300 N.ar    1  UNL1       -0.2030
     23 C         140.2108  139.2303  163.3798 C.ar    1  UNL1        0.0514
     24 C         141.2246  140.0505  164.1210 C.ar    1  UNL1        0.0145
     25 C         141.1198  140.2069  165.6091 C.ar    1  UNL1       -0.0008
     26 C         140.0012  139.5429  166.3561 C.ar    1  UNL1        0.0045
     27 C         138.9874  138.7227  165.6150 C.ar    1  UNL1        0.0562
     28 CL        137.8689  138.0587  166.3618 Cl      1  UNL1       -0.0825
     29 C         139.0923  138.5664  164.1268 C.ar    1  UNL1        0.0258
     30 C         139.8965  139.6992  167.8443 C.3     1  UNL1        0.1003
     31 N         140.7759  140.6820  168.5589 N.3     1  UNL1       -0.2633
     32 C         142.2592  140.5631  168.7475 C.3     1  UNL1        0.0987
     33 C         142.7265  141.7638  169.5155 C.2     1  UNL1        0.0177
     34 C         143.9321  142.4324  170.1068 C.2     1  UNL1        0.1165
     35 N         143.4826  143.7066  170.7582 N.2     1  UNL1       -0.1513
     36 N         141.9993  143.8256  170.5696 N.2     1  UNL1       -0.1708
     37 C         141.5320  142.6248  169.8016 C.3     1  UNL1        0.1621
     38 C         140.3265  141.9562  169.2103 C.3     1  UNL1        0.1034
@<TRIPOS>BOND
     1     5     6    1
     2     6     7   ar
     3     7     8   ar
     4     8     9   ar
     5     9     1    1
     6     1     2    2
     7     1     3   am
     8     3    23    1
     9    23    24   ar
    10    24    25   ar
    11    25    26   ar
    12    26    30    1
    13    30    31    1
    14    31    32    1
    15    32    33    1
    16    33    34    2
    17    34    35    1
    18    35    36    2
    19    36    37    1
    20    37    38    1
    21    26    27   ar
    22    27    28    1
    23    27    29   ar
    24     9    10   ar
    25    10    11   ar
    26    11    12    1
    27    12    13    3
    28    13    14    1
    29    14    15   ar
    30    15    16   ar
    31    16    17   ar
    32    17    18   ar
    33    18    19   ar
    34    19    20   ar
    35    20    21   ar
    36    21    22   ar
    37    11     6   ar
    38    22    14   ar
    39    29    23   ar
    40    22    17   ar
    41    38    31    1
    42    37    33    1
    43     3     4    1
@<TRIPOS>MOLECULE
*****
 38 43 0 0 0
SMALL
GASTEIGER

@<TRIPOS>ATOM
      1 C         142.4833  138.8149  160.2771 C.2     1  UNL1        0.2495
      2 O         143.7883  138.2770  160.7847 O.2     1  UNL1       -0.2698
      3 N         141.4875  139.3960  161.2366 N.am    1  UNL1       -0.2804
      4 H         140.6310  139.7491  160.9033 H       1  UNL1        0.1552
      5 C         141.2470  138.6423  154.4084 C.3     1  UNL1        0.0317
      6 C         141.5561  138.6854  155.8755 C.ar    1  UNL1       -0.0142
      7 C         141.3741  139.9612  156.6431 C.ar    1  UNL1       -0.0035
      8 C         141.6832  140.0045  158.1102 C.ar    1  UNL1        0.0042
      9 C         142.1743  138.7718  158.8099 C.ar    1  UNL1        0.0543
     10 C         142.3562  137.4960  158.0423 C.ar    1  UNL1        0.0124
     11 C         142.0471  137.4528  156.5752 C.ar    1  UNL1        0.0382
     12 C         142.2291  136.1770  155.8076 C.1     1  UNL1       -0.0585
     13 C         142.4109  134.9011  155.0400 C.1     1  UNL1       -0.0388
     14 C         142.5929  133.6253  154.2724 C.ar    1  UNL1        0.1451
     15 C         142.0002  133.3114  152.9307 C.ar    1  UNL1        0.1281
     16 N         142.4405  131.9315  152.5408 N.ar    1  UNL1       -0.2228
     17 C         143.3053  131.3926  153.6416 C.ar    1  UNL1        0.1646
     18 C         144.0192  130.0839  153.8077 C.ar    1  UNL1        0.0405
     19 C         144.8272  129.8220  155.0440 C.ar    1  UNL1        0.0256
     20 C         144.9214  130.8689  156.1142 C.ar    1  UNL1        0.1207
     21 N         144.2075  132.1776  155.9480 N.ar    1  UNL1       -0.1616
     22 N         143.3995  132.4394  154.7118 N.ar    1  UNL1       -0.2030
     23 C         141.7966  139.4392  162.7037 C.ar    1  UNL1        0.0514
     24 C         141.2322  138.3944  163.6202 C.ar    1  UNL1        0.0145
     25 C         141.5413  138.4376  165.0873 C.ar    1  UNL1       -0.0008
     26 C         142.4148  139.5255  165.6381 C.ar    1  UNL1        0.0045
     27 C         142.9792  140.5704  164.7217 C.ar    1  UNL1        0.0562
     28 CL        143.8526  141.6584  165.2724 Cl      1  UNL1       -0.0825
     29 C         142.6700  140.5272  163.2545 C.ar    1  UNL1        0.0258
     30 C         142.7239  139.5687  167.1053 C.3     1  UNL1        0.1003
     31 N         141.9223  140.4518  168.0149 N.3     1  UNL1       -0.2633
     32 C         142.1440  141.9181  168.2405 C.3     1  UNL1        0.0987
     33 C         141.1170  142.3963  169.2237 C.2     1  UNL1        0.0177
     34 C         140.6193  143.5980  169.9707 C.2     1  UNL1        0.1165
     35 N         139.4553  143.1700  170.8145 N.2     1  UNL1       -0.1513
     36 N         139.2337  141.7037  170.5890 N.2     1  UNL1       -0.1708
     37 C         140.2606  141.2256  169.6058 C.3     1  UNL1        0.1621
     38 C         140.7584  140.0238  168.8587 C.3     1  UNL1        0.1034
@<TRIPOS>BOND
     1     5     6    1
     2     6     7   ar
     3     7     8   ar
     4     8     9   ar
     5     9     1    1
     6     1     2    2
     7     1     3   am
     8     3    23    1
     9    23    24   ar
    10    24    25   ar
    11    25    26   ar
    12    26    30    1
    13    30    31    1
    14    31    32    1
    15    32    33    1
    16    33    34    2
    17    34    35    1
    18    35    36    2
    19    36    37    1
    20    37    38    1
    21    26    27   ar
    22    27    28    1
    23    27    29   ar
    24     9    10   ar
    25    10    11   ar
    26    11    12    1
    27    12    13    3
    28    13    14    1
    29    14    15   ar
    30    15    16   ar
    31    16    17   ar
    32    17    18   ar
    33    18    19   ar
    34    19    20   ar
    35    20    21   ar
    36    21    22   ar
    37    11     6   ar
    38    22    14   ar
    39    29    23   ar
    40    22    17   ar
    41    38    31    1
    42    37    33    1
    43     3     4    1
@<TRIPOS>MOLECULE
*****
 38 43 0 0 0
SMALL
GASTEIGER

@<TRIPOS>ATOM
      1 C         142.8063  139.2658  159.4451 C.2     1  UNL1        0.2495
      2 O         143.7592  140.4107  159.6222 O.2     1  UNL1       -0.2698
      3 N         141.9885  138.7840  160.6065 N.am    1  UNL1       -0.2804
      4 H         141.3632  138.0325  160.4902 H       1  UNL1        0.1552
      5 C         142.2665  136.6134  154.0903 C.3     1  UNL1        0.0317
      6 C         142.4014  137.2765  155.4290 C.ar    1  UNL1       -0.0142
      7 C         142.3418  138.7716  155.5348 C.ar    1  UNL1       -0.0035
      8 C         142.4768  139.4347  156.8734 C.ar    1  UNL1        0.0042
      9 C         142.6714  138.6027  158.1064 C.ar    1  UNL1        0.0543
     10 C         142.7310  137.1077  158.0005 C.ar    1  UNL1        0.0124
     11 C         142.5960  136.4446  156.6618 C.ar    1  UNL1        0.0382
     12 C         142.6556  134.9495  156.5560 C.1     1  UNL1       -0.0585
     13 C         142.7152  133.4544  156.4500 C.1     1  UNL1       -0.0388
     14 C         142.7748  131.9593  156.3441 C.ar    1  UNL1        0.1451
     15 C         143.8146  131.0724  156.9625 C.ar    1  UNL1        0.1281
     16 N         143.4874  129.6537  156.6018 N.ar    1  UNL1       -0.2228
     17 C         142.2456  129.6637  155.7606 C.ar    1  UNL1        0.1646
     18 C         141.4589  128.5594  155.1190 C.ar    1  UNL1        0.0405
     19 C         140.2318  128.8801  154.3182 C.ar    1  UNL1        0.0256
     20 C         139.7914  130.3052  154.1590 C.ar    1  UNL1        0.1207
     21 N         140.5781  131.4095  154.8005 N.ar    1  UNL1       -0.1616
     22 N         141.8051  131.0887  155.6013 N.ar    1  UNL1       -0.2030
     23 C         142.1235  139.4470  161.9452 C.ar    1  UNL1        0.0514
     24 C         141.4743  140.7764  162.1926 C.ar    1  UNL1        0.0145
     25 C         141.6093  141.4395  163.5313 C.ar    1  UNL1       -0.0008
     26 C         142.3934  140.7731  164.6227 C.ar    1  UNL1        0.0045
     27 C         143.0426  139.4437  164.3754 C.ar    1  UNL1        0.0562
     28 CL        143.8268  138.7773  165.4666 Cl      1  UNL1       -0.0825
     29 C         142.9076  138.7807  163.0366 C.ar    1  UNL1        0.0258
     30 C         142.5284  141.4362  165.9614 C.3     1  UNL1        0.1003
     31 N         141.6618  140.9997  167.1053 N.3     1  UNL1       -0.2633
     32 C         142.0564  140.9790  168.5523 C.3     1  UNL1        0.0987
     33 C         140.8870  140.4738  169.3443 C.2     1  UNL1        0.0177
     34 C         140.4081  140.1488  170.7282 C.2     1  UNL1        0.1165
     35 N         138.9949  139.6564  170.6259 N.2     1  UNL1       -0.1513
     36 N         138.6004  139.6772  169.1789 N.2     1  UNL1       -0.1708
     37 C         139.7698  140.1823  168.3869 C.3     1  UNL1        0.1621
     38 C         140.2487  140.5074  167.0030 C.3     1  UNL1        0.1034
@<TRIPOS>BOND
     1     5     6    1
     2     6     7   ar
     3     7     8   ar
     4     8     9   ar
     5     9     1    1
     6     1     2    2
     7     1     3   am
     8     3    23    1
     9    23    24   ar
    10    24    25   ar
    11    25    26   ar
    12    26    30    1
    13    30    31    1
    14    31    32    1
    15    32    33    1
    16    33    34    2
    17    34    35    1
    18    35    36    2
    19    36    37    1
    20    37    38    1
    21    26    27   ar
    22    27    28    1
    23    27    29   ar
    24     9    10   ar
    25    10    11   ar
    26    11    12    1
    27    12    13    3
    28    13    14    1
    29    14    15   ar
    30    15    16   ar
    31    16    17   ar
    32    17    18   ar
    33    18    19   ar
    34    19    20   ar
    35    20    21   ar
    36    21    22   ar
    37    11     6   ar
    38    22    14   ar
    39    29    23   ar
    40    22    17   ar
    41    38    31    1
    42    37    33    1
    43     3     4    1
