@<TRIPOS>MOLECULE
*****
 33 34 0 0 0
SMALL
GASTEIGER

@<TRIPOS>ATOM
      1 C         139.1543  142.8572  162.3250 C.3     1  UNL1        0.2430
      2 C         139.0821  144.3552  162.3508 C.2     1  UNL1        0.2845
      3 O         137.7554  145.0397  162.4965 O.2     1  UNL1       -0.2691
      4 N         140.3367  145.1687  162.2308 N.am    1  UNL1       -0.1940
      5 O         140.2644  146.6668  162.2566 O.3     1  UNL1       -0.2951
      6 H         141.2074  144.7194  162.1352 H       1  UNL1        0.1823
      7 H         139.3403  146.9443  162.3557 H       1  UNL1        0.2414
      8 C         137.9090  142.0499  162.1066 C.3     1  UNL1        0.0533
      9 C         137.8558  140.6182  162.5508 C.3     1  UNL1        0.0057
     10 C         138.2835  139.5264  161.6154 C.3     1  UNL1        0.0172
     11 C         138.1654  138.0908  162.0343 C.3     1  UNL1        0.0688
     12 N         139.3627  137.3661  162.5738 N.3     1  UNL1       -0.2951
     13 H         139.1140  136.3778  162.6169 H       1  UNL1        0.1235
     14 C         139.9178  137.7319  163.9184 C.3     1  UNL1        0.0768
     15 C         141.3137  138.2690  164.0326 C.ar    1  UNL1       -0.0079
     16 C         142.0034  138.2880  165.3645 C.ar    1  UNL1       -0.0007
     17 C         143.3992  138.8252  165.4787 C.ar    1  UNL1        0.0294
     18 C         144.1054  139.3433  164.2611 C.ar    1  UNL1        0.1401
     19 F         145.5013  139.8804  164.3753 F       1  UNL1       -0.2042
     20 C         143.4158  139.3243  162.9291 C.ar    1  UNL1        0.0294
     21 C         142.0199  138.7872  162.8148 C.ar    1  UNL1       -0.0007
     22 C         138.3225  138.7291  165.7102 C.3     1  UNL1        0.0018
     23 C         139.0771  137.5606  165.1488 C.3     1  UNL1        0.0202
     24 O         140.4717  142.1664  162.5177 O.3     1  UNL1       -0.4699
     25 C         141.1536  142.2107  163.8530 C.ar    1  UNL1        0.1386
     26 C         142.5343  142.7849  163.9715 C.ar    1  UNL1        0.0349
     27 C         143.2161  142.8292  165.3068 C.ar    1  UNL1        0.0083
     28 C         144.5968  143.4035  165.4253 C.3     1  UNL1        0.0335
     29 C         142.5173  142.2992  166.5237 C.ar    1  UNL1        0.1323
     30 F         143.1992  142.3435  167.8590 F       1  UNL1       -0.2048
     31 C         141.1367  141.7249  166.4052 C.ar    1  UNL1        0.0083
     32 C         140.4379  141.1949  167.6221 C.3     1  UNL1        0.0335
     33 C         140.4549  141.6807  165.0699 C.ar    1  UNL1        0.0349
@<TRIPOS>BOND
     1    22    23    1
     2    23    14    1
     3    14    12    1
     4    12    11    1
     5    11    10    1
     6    10     9    1
     7     9     8    1
     8     1     8    1
     9     1    24    1
    10    24    25    1
    11    25    26   ar
    12    26    27   ar
    13    27    28    1
    14    27    29   ar
    15    29    30    1
    16    29    31   ar
    17    31    32    1
    18    31    33   ar
    19     1     2    1
    20     2     3    2
    21     2     4   am
    22     4     5    1
    23    14    15    1
    24    15    16   ar
    25    16    17   ar
    26    17    18   ar
    27    18    19    1
    28    18    20   ar
    29    20    21   ar
    30    33    25   ar
    31    21    15   ar
    32    12    13    1
    33     4     6    1
    34     5     7    1
@<TRIPOS>MOLECULE
*****
 33 34 0 0 0
SMALL
GASTEIGER

@<TRIPOS>ATOM
      1 C         142.1720  141.3850  168.4775 C.3     1  UNL1        0.2430
      2 C         142.2024  142.5428  169.4307 C.2     1  UNL1        0.2845
      3 O         141.0017  143.4310  169.5703 O.2     1  UNL1       -0.2691
      4 N         143.4334  142.8124  170.2444 N.am    1  UNL1       -0.1940
      5 O         143.4637  143.9701  171.1976 O.3     1  UNL1       -0.2951
      6 H         144.2215  142.2294  170.1527 H       1  UNL1        0.1823
      7 H         142.6143  144.4375  171.1658 H       1  UNL1        0.2414
      8 C         141.4313  140.1325  168.8421 C.3     1  UNL1        0.0533
      9 C         139.9371  140.0827  168.7208 C.3     1  UNL1        0.0057
     10 C         139.2904  140.1857  167.3713 C.3     1  UNL1        0.0172
     11 C         138.4924  139.0356  166.8323 C.3     1  UNL1        0.0688
     12 N         138.9319  138.3404  165.5779 N.3     1  UNL1       -0.2951
     13 H         139.5665  137.5940  165.8618 H       1  UNL1        0.1235
     14 C         139.6280  139.1129  164.4969 C.3     1  UNL1        0.0768
     15 C         141.1257  139.1927  164.4777 C.ar    1  UNL1       -0.0079
     16 C         141.8201  140.0046  163.4248 C.ar    1  UNL1       -0.0007
     17 C         143.3179  140.0844  163.4057 C.ar    1  UNL1        0.0294
     18 C         144.1212  139.3523  164.4393 C.ar    1  UNL1        0.1401
     19 F         145.6190  139.4321  164.4201 F       1  UNL1       -0.2042
     20 C         143.4269  138.5403  165.4923 C.ar    1  UNL1        0.0294
     21 C         141.9291  138.4605  165.5114 C.ar    1  UNL1       -0.0007
     22 C         137.7983  140.8282  163.8187 C.3     1  UNL1        0.0018
     23 C         138.8263  139.8056  163.4350 C.3     1  UNL1        0.0202
     24 O         142.8824  141.4796  167.1598 O.3     1  UNL1       -0.4699
     25 C         142.4219  142.4669  166.1287 C.ar    1  UNL1        0.1386
     26 C         140.9665  142.8128  166.0187 C.ar    1  UNL1        0.0349
     27 C         140.5060  143.8000  164.9876 C.ar    1  UNL1        0.0083
     28 C         139.0505  144.1459  164.8777 C.3     1  UNL1        0.0335
     29 C         141.5010  144.4415  164.0665 C.ar    1  UNL1        0.1323
     30 F         141.0405  145.4289  163.0353 F       1  UNL1       -0.2048
     31 C         142.9564  144.0957  164.1764 C.ar    1  UNL1        0.0083
     32 C         143.9514  144.7371  163.2552 C.3     1  UNL1        0.0335
     33 C         143.4168  143.1084  165.2075 C.ar    1  UNL1        0.0349
@<TRIPOS>BOND
     1    22    23    1
     2    23    14    1
     3    14    12    1
     4    12    11    1
     5    11    10    1
     6    10     9    1
     7     9     8    1
     8     1     8    1
     9     1    24    1
    10    24    25    1
    11    25    26   ar
    12    26    27   ar
    13    27    28    1
    14    27    29   ar
    15    29    30    1
    16    29    31   ar
    17    31    32    1
    18    31    33   ar
    19     1     2    1
    20     2     3    2
    21     2     4   am
    22     4     5    1
    23    14    15    1
    24    15    16   ar
    25    16    17   ar
    26    17    18   ar
    27    18    19    1
    28    18    20   ar
    29    20    21   ar
    30    33    25   ar
    31    21    15   ar
    32    12    13    1
    33     4     6    1
    34     5     7    1
@<TRIPOS>MOLECULE
*****
 33 34 0 0 0
SMALL
GASTEIGER

@<TRIPOS>ATOM
      1 C         140.6030  141.2719  169.5493 C.3     1  UNL1        0.2430
      2 C         140.3927  142.5309  170.3372 C.2     1  UNL1        0.2845
      3 O         140.3658  142.4819  171.8361 O.2     1  UNL1       -0.2691
      4 N         140.2094  143.8389  169.6261 N.am    1  UNL1       -0.1940
      5 O         139.9991  145.0979  170.4140 O.3     1  UNL1       -0.2951
      6 H         140.2271  143.8711  168.6423 H       1  UNL1        0.1823
      7 H         140.0089  144.8916  171.3617 H       1  UNL1        0.2414
      8 C         139.4269  140.4274  169.1570 C.3     1  UNL1        0.0533
      9 C         139.4821  139.5986  167.9080 C.3     1  UNL1        0.0057
     10 C         138.2123  139.1952  167.2190 C.3     1  UNL1        0.0172
     11 C         138.2231  138.8758  165.7534 C.3     1  UNL1        0.0688
     12 N         137.7752  139.9048  164.7581 N.3     1  UNL1       -0.2951
     13 H         136.9396  139.5333  164.3063 H       1  UNL1        0.1235
     14 C         138.7019  140.3417  163.6626 C.3     1  UNL1        0.0768
     15 C         139.4875  141.6114  163.8066 C.ar    1  UNL1       -0.0079
     16 C         139.4840  142.3516  165.1111 C.ar    1  UNL1       -0.0007
     17 C         140.2696  143.6213  165.2552 C.ar    1  UNL1        0.0294
     18 C         141.0588  144.1507  164.0946 C.ar    1  UNL1        0.1401
     19 F         141.8444  145.4204  164.2386 F       1  UNL1       -0.2042
     20 C         141.0623  143.4104  162.7899 C.ar    1  UNL1        0.0294
     21 C         140.2767  142.1408  162.6459 C.ar    1  UNL1       -0.0007
     22 C         139.1209  138.0392  162.5343 C.3     1  UNL1        0.0018
     23 C         138.8430  139.5089  162.4229 C.3     1  UNL1        0.0202
     24 O         141.9892  140.8574  169.1537 O.3     1  UNL1       -0.4699
     25 C         142.4575  141.0561  167.7425 C.ar    1  UNL1        0.1386
     26 C         142.1676  140.0148  166.7025 C.ar    1  UNL1        0.0349
     27 C         142.6359  140.2135  165.2914 C.ar    1  UNL1        0.0083
     28 C         142.3460  139.1722  164.2513 C.3     1  UNL1        0.0335
     29 C         143.3940  141.4535  164.9203 C.ar    1  UNL1        0.1323
     30 F         143.8623  141.6521  163.5092 F       1  UNL1       -0.2048
     31 C         143.6839  142.4948  165.9603 C.ar    1  UNL1        0.0083
     32 C         144.4420  143.7347  165.5892 C.3     1  UNL1        0.0335
     33 C         143.2156  142.2961  167.3714 C.ar    1  UNL1        0.0349
@<TRIPOS>BOND
     1    22    23    1
     2    23    14    1
     3    14    12    1
     4    12    11    1
     5    11    10    1
     6    10     9    1
     7     9     8    1
     8     1     8    1
     9     1    24    1
    10    24    25    1
    11    25    26   ar
    12    26    27   ar
    13    27    28    1
    14    27    29   ar
    15    29    30    1
    16    29    31   ar
    17    31    32    1
    18    31    33   ar
    19     1     2    1
    20     2     3    2
    21     2     4   am
    22     4     5    1
    23    14    15    1
    24    15    16   ar
    25    16    17   ar
    26    17    18   ar
    27    18    19    1
    28    18    20   ar
    29    20    21   ar
    30    33    25   ar
    31    21    15   ar
    32    12    13    1
    33     4     6    1
    34     5     7    1
@<TRIPOS>MOLECULE
*****
 33 34 0 0 0
SMALL
GASTEIGER

@<TRIPOS>ATOM
      1 C         142.0775  143.7135  164.2434 C.3     1  UNL1        0.2430
      2 C         141.0629  144.7653  163.9053 C.2     1  UNL1        0.2845
      3 O         139.7730  144.8357  164.6676 O.2     1  UNL1       -0.2691
      4 N         141.3383  145.7468  162.8049 N.am    1  UNL1       -0.1940
      5 O         140.3237  146.7987  162.4668 O.3     1  UNL1       -0.2951
      6 H         142.1849  145.7006  162.3045 H       1  UNL1        0.1823
      7 H         139.5541  146.7047  163.0496 H       1  UNL1        0.2414
      8 C         143.5128  144.0957  164.4530 C.3     1  UNL1        0.0533
      9 C         144.4827  143.0938  165.0055 C.3     1  UNL1        0.0057
     10 C         145.2705  142.2205  164.0746 C.3     1  UNL1        0.0172
     11 C         145.1510  140.7279  164.1652 C.3     1  UNL1        0.0688
     12 N         144.0352  140.0204  163.4552 N.3     1  UNL1       -0.2951
     13 H         143.4286  140.7426  163.0668 H       1  UNL1        0.1235
     14 C         143.1508  139.0705  164.2073 C.3     1  UNL1        0.0768
     15 C         141.8094  138.6947  163.6511 C.ar    1  UNL1       -0.0079
     16 C         141.2838  139.3866  162.4285 C.ar    1  UNL1       -0.0007
     17 C         139.9424  139.0108  161.8723 C.ar    1  UNL1        0.0294
     18 C         139.1265  137.9430  162.5388 C.ar    1  UNL1        0.1401
     19 F         137.7851  137.5672  161.9827 F       1  UNL1       -0.2042
     20 C         139.6521  137.2511  163.7616 C.ar    1  UNL1        0.0294
     21 C         140.9935  137.6269  164.3177 C.ar    1  UNL1       -0.0007
     22 C         143.1049  139.0746  166.8050 C.3     1  UNL1        0.0018
     23 C         143.6079  138.4964  165.5156 C.3     1  UNL1        0.0202
     24 O         141.6568  142.2795  164.3718 O.3     1  UNL1       -0.4699
     25 C         141.0137  141.7970  165.6382 C.ar    1  UNL1        0.1386
     26 C         141.3946  142.4096  166.9533 C.ar    1  UNL1        0.0349
     27 C         140.7515  141.9272  168.2197 C.ar    1  UNL1        0.0083
     28 C         141.1324  142.5398  169.5349 C.3     1  UNL1        0.0335
     29 C         139.7276  140.8321  168.1709 C.ar    1  UNL1        0.1323
     30 F         139.0846  140.3496  169.4374 F       1  UNL1       -0.2048
     31 C         139.3468  140.2194  166.8558 C.ar    1  UNL1        0.0083
     32 C         138.3229  139.1243  166.8070 C.3     1  UNL1        0.0335
     33 C         139.9898  140.7019  165.5895 C.ar    1  UNL1        0.0349
@<TRIPOS>BOND
     1    22    23    1
     2    23    14    1
     3    14    12    1
     4    12    11    1
     5    11    10    1
     6    10     9    1
     7     9     8    1
     8     1     8    1
     9     1    24    1
    10    24    25    1
    11    25    26   ar
    12    26    27   ar
    13    27    28    1
    14    27    29   ar
    15    29    30    1
    16    29    31   ar
    17    31    32    1
    18    31    33   ar
    19     1     2    1
    20     2     3    2
    21     2     4   am
    22     4     5    1
    23    14    15    1
    24    15    16   ar
    25    16    17   ar
    26    17    18   ar
    27    18    19    1
    28    18    20   ar
    29    20    21   ar
    30    33    25   ar
    31    21    15   ar
    32    12    13    1
    33     4     6    1
    34     5     7    1
@<TRIPOS>MOLECULE
*****
 33 34 0 0 0
SMALL
GASTEIGER

@<TRIPOS>ATOM
      1 C         140.0573  144.3615  163.9223 C.3     1  UNL1        0.2430
      2 C         139.2834  145.1053  162.8746 C.2     1  UNL1        0.2845
      3 O         137.8849  144.6831  162.5341 O.2     1  UNL1       -0.2691
      4 N         139.9080  146.2714  162.1673 N.am    1  UNL1       -0.1940
      5 O         139.1340  147.0153  161.1196 O.3     1  UNL1       -0.2951
      6 H         140.8259  146.5485  162.3908 H       1  UNL1        0.1823
      7 H         138.2551  146.6165  161.0229 H       1  UNL1        0.2414
      8 C         141.5468  144.5177  164.0067 C.3     1  UNL1        0.0533
      9 C         142.4273  143.8835  162.9711 C.3     1  UNL1        0.0057
     10 C         143.5245  142.9501  163.3893 C.3     1  UNL1        0.0172
     11 C         143.1877  141.6002  163.9501 C.3     1  UNL1        0.0688
     12 N         143.6814  141.2092  165.3115 N.3     1  UNL1       -0.2951
     13 H         144.6088  140.8043  165.1833 H       1  UNL1        0.1235
     14 C         142.8966  140.2390  166.1437 C.3     1  UNL1        0.0768
     15 C         141.9642  140.7438  167.2047 C.ar    1  UNL1       -0.0079
     16 C         141.3152  139.7800  168.1533 C.ar    1  UNL1       -0.0007
     17 C         140.3828  140.2848  169.2143 C.ar    1  UNL1        0.0294
     18 C         140.0994  141.7535  169.3268 C.ar    1  UNL1        0.1401
     19 F         139.1670  142.2583  170.3878 F       1  UNL1       -0.2042
     20 C         140.7484  142.7174  168.3782 C.ar    1  UNL1        0.0294
     21 C         141.6808  142.2125  167.3171 C.ar    1  UNL1       -0.0007
     22 C         142.0864  138.0455  165.0114 C.3     1  UNL1        0.0018
     23 C         143.0442  138.7638  165.9150 C.3     1  UNL1        0.0202
     24 O         139.3418  143.4615  164.8856 O.3     1  UNL1       -0.4699
     25 C         139.1807  142.0035  164.5716 C.ar    1  UNL1        0.1386
     26 C         138.6986  141.0570  165.6308 C.ar    1  UNL1        0.0349
     27 C         138.5375  139.5992  165.3168 C.ar    1  UNL1        0.0083
     28 C         138.0554  138.6526  166.3759 C.3     1  UNL1        0.0335
     29 C         138.8585  139.0878  163.9436 C.ar    1  UNL1        0.1323
     30 F         138.6973  137.6299  163.6297 F       1  UNL1       -0.2048
     31 C         139.3405  140.0343  162.8845 C.ar    1  UNL1        0.0083
     32 C         139.6614  139.5229  161.5114 C.3     1  UNL1        0.0335
     33 C         139.5016  141.4921  163.1985 C.ar    1  UNL1        0.0349
@<TRIPOS>BOND
     1    22    23    1
     2    23    14    1
     3    14    12    1
     4    12    11    1
     5    11    10    1
     6    10     9    1
     7     9     8    1
     8     1     8    1
     9     1    24    1
    10    24    25    1
    11    25    26   ar
    12    26    27   ar
    13    27    28    1
    14    27    29   ar
    15    29    30    1
    16    29    31   ar
    17    31    32    1
    18    31    33   ar
    19     1     2    1
    20     2     3    2
    21     2     4   am
    22     4     5    1
    23    14    15    1
    24    15    16   ar
    25    16    17   ar
    26    17    18   ar
    27    18    19    1
    28    18    20   ar
    29    20    21   ar
    30    33    25   ar
    31    21    15   ar
    32    12    13    1
    33     4     6    1
    34     5     7    1
@<TRIPOS>MOLECULE
*****
 33 34 0 0 0
SMALL
GASTEIGER

@<TRIPOS>ATOM
      1 C         140.0371  140.5174  168.3786 C.3     1  UNL1        0.2430
      2 C         139.8745  140.7598  169.8499 C.2     1  UNL1        0.2845
      3 O         139.0021  139.8539  170.6674 O.2     1  UNL1       -0.2691
      4 N         140.5843  141.9082  170.5037 N.am    1  UNL1       -0.1940
      5 O         140.4216  142.1507  171.9750 O.3     1  UNL1       -0.2951
      6 H         141.1568  142.5028  169.9672 H       1  UNL1        0.1823
      7 H         139.8297  141.4798  172.3498 H       1  UNL1        0.2414
      8 C         141.1398  141.1986  167.6236 C.3     1  UNL1        0.0533
      9 C         142.5329  140.6441  167.6679 C.3     1  UNL1        0.0057
     10 C         142.7494  139.1599  167.6764 C.3     1  UNL1        0.0172
     11 C         143.4552  138.4983  166.5299 C.3     1  UNL1        0.0688
     12 N         142.6923  138.1273  165.2929 N.3     1  UNL1       -0.2951
     13 H         142.9658  137.1745  165.0530 H       1  UNL1        0.1235
     14 C         142.8408  138.9476  164.0459 C.3     1  UNL1        0.0768
     15 C         143.0367  140.4315  164.1432 C.ar    1  UNL1       -0.0079
     16 C         144.4118  140.9947  164.3479 C.ar    1  UNL1       -0.0007
     17 C         144.6077  142.4787  164.4452 C.ar    1  UNL1        0.0294
     18 C         143.4285  143.3995  164.3378 C.ar    1  UNL1        0.1401
     19 F         143.6244  144.8834  164.4350 F       1  UNL1       -0.2042
     20 C         142.0533  142.8363  164.1330 C.ar    1  UNL1        0.0294
     21 C         141.8574  141.3523  164.0358 C.ar    1  UNL1       -0.0007
     22 C         143.9925  138.3268  161.8013 C.3     1  UNL1        0.0018
     23 C         142.7935  138.2838  162.7015 C.3     1  UNL1        0.0202
     24 O         139.0970  139.5937  167.6623 O.3     1  UNL1       -0.4699
     25 C         138.8915  139.7323  166.1828 C.ar    1  UNL1        0.1386
     26 C         139.1889  138.5775  165.2729 C.ar    1  UNL1        0.0349
     27 C         138.9833  138.7161  163.7936 C.ar    1  UNL1        0.0083
     28 C         139.2808  137.5613  162.8836 C.3     1  UNL1        0.0335
     29 C         138.4803  140.0094  163.2242 C.ar    1  UNL1        0.1323
     30 F         138.2747  140.1480  161.7447 F       1  UNL1       -0.2048
     31 C         138.1828  141.1642  164.1341 C.ar    1  UNL1        0.0083
     32 C         137.6798  142.4575  163.5647 C.3     1  UNL1        0.0335
     33 C         138.3884  141.0256  165.6134 C.ar    1  UNL1        0.0349
@<TRIPOS>BOND
     1    22    23    1
     2    23    14    1
     3    14    12    1
     4    12    11    1
     5    11    10    1
     6    10     9    1
     7     9     8    1
     8     1     8    1
     9     1    24    1
    10    24    25    1
    11    25    26   ar
    12    26    27   ar
    13    27    28    1
    14    27    29   ar
    15    29    30    1
    16    29    31   ar
    17    31    32    1
    18    31    33   ar
    19     1     2    1
    20     2     3    2
    21     2     4   am
    22     4     5    1
    23    14    15    1
    24    15    16   ar
    25    16    17   ar
    26    17    18   ar
    27    18    19    1
    28    18    20   ar
    29    20    21   ar
    30    33    25   ar
    31    21    15   ar
    32    12    13    1
    33     4     6    1
    34     5     7    1
@<TRIPOS>MOLECULE
*****
 33 34 0 0 0
SMALL
GASTEIGER

@<TRIPOS>ATOM
      1 C         139.8573  144.1368  162.9427 C.3     1  UNL1        0.2430
      2 C         139.7791  145.0226  161.7347 C.2     1  UNL1        0.2845
      3 O         139.6364  146.5065  161.9008 O.2     1  UNL1       -0.2691
      4 N         139.8436  144.4245  160.3606 N.am    1  UNL1       -0.1940
      5 O         139.7654  145.3104  159.1526 O.3     1  UNL1       -0.2951
      6 H         139.9372  143.4506  160.2515 H       1  UNL1        0.1823
      7 H         139.6756  146.2342  159.4344 H       1  UNL1        0.2414
      8 C         141.1805  143.8823  163.6018 C.3     1  UNL1        0.0533
      9 C         142.0978  145.0285  163.9097 C.3     1  UNL1        0.0057
     10 C         143.5842  144.8312  163.8698 C.3     1  UNL1        0.0172
     11 C         144.2726  144.0918  164.9786 C.3     1  UNL1        0.0688
     12 N         144.3989  142.5984  164.9189 N.3     1  UNL1       -0.2951
     13 H         144.3290  142.3360  163.9357 H       1  UNL1        0.1235
     14 C         143.4292  141.7332  165.6680 C.3     1  UNL1        0.0768
     15 C         142.8633  140.5051  165.0189 C.ar    1  UNL1       -0.0079
     16 C         142.5107  140.5220  163.5611 C.ar    1  UNL1       -0.0007
     17 C         141.9448  139.2939  162.9119 C.ar    1  UNL1        0.0294
     18 C         141.7316  138.0487  163.7206 C.ar    1  UNL1        0.1401
     19 F         141.1657  136.8205  163.0715 F       1  UNL1       -0.2042
     20 C         142.0842  138.0317  165.1785 C.ar    1  UNL1        0.0294
     21 C         142.6501  139.2599  165.8277 C.ar    1  UNL1       -0.0007
     22 C         141.5996  142.4530  167.3665 C.3     1  UNL1        0.0018
     23 C         143.0253  142.0963  167.0663 C.3     1  UNL1        0.0202
     24 O         138.6123  143.5053  163.4915 O.3     1  UNL1       -0.4699
     25 C         138.5968  142.0425  163.8233 C.ar    1  UNL1        0.1386
     26 C         138.8623  141.5892  165.2282 C.ar    1  UNL1        0.0349
     27 C         138.8468  140.1265  165.5599 C.ar    1  UNL1        0.0083
     28 C         139.1123  139.6732  166.9650 C.3     1  UNL1        0.0335
     29 C         138.5658  139.1170  164.4866 C.ar    1  UNL1        0.1323
     30 F         138.5503  137.6542  164.8184 F       1  UNL1       -0.2048
     31 C         138.3003  139.5703  163.0816 C.ar    1  UNL1        0.0083
     32 C         138.0192  138.5608  162.0083 C.3     1  UNL1        0.0335
     33 C         138.3158  141.0330  162.7500 C.ar    1  UNL1        0.0349
@<TRIPOS>BOND
     1    22    23    1
     2    23    14    1
     3    14    12    1
     4    12    11    1
     5    11    10    1
     6    10     9    1
     7     9     8    1
     8     1     8    1
     9     1    24    1
    10    24    25    1
    11    25    26   ar
    12    26    27   ar
    13    27    28    1
    14    27    29   ar
    15    29    30    1
    16    29    31   ar
    17    31    32    1
    18    31    33   ar
    19     1     2    1
    20     2     3    2
    21     2     4   am
    22     4     5    1
    23    14    15    1
    24    15    16   ar
    25    16    17   ar
    26    17    18   ar
    27    18    19    1
    28    18    20   ar
    29    20    21   ar
    30    33    25   ar
    31    21    15   ar
    32    12    13    1
    33     4     6    1
    34     5     7    1
@<TRIPOS>MOLECULE
*****
 33 34 0 0 0
SMALL
GASTEIGER

@<TRIPOS>ATOM
      1 C         140.3453  144.7286  162.5788 C.3     1  UNL1        0.2430
      2 C         140.5340  144.7985  161.0924 C.2     1  UNL1        0.2845
      3 O         139.4700  144.2718  160.1757 O.2     1  UNL1       -0.2691
      4 N         141.7868  145.3952  160.5226 N.am    1  UNL1       -0.1940
      5 O         141.9754  145.4652  159.0362 O.3     1  UNL1       -0.2951
      6 H         142.4852  145.7409  161.1243 H       1  UNL1        0.1823
      7 H         141.2006  145.0848  158.5936 H       1  UNL1        0.2414
      8 C         138.9717  144.8584  163.1674 C.3     1  UNL1        0.0533
      9 C         138.7288  144.4736  164.5967 C.3     1  UNL1        0.0057
     10 C         138.3933  143.0536  164.9445 C.3     1  UNL1        0.0172
     11 C         137.7548  142.1616  163.9214 C.3     1  UNL1        0.0688
     12 N         137.4538  140.7310  164.2569 N.3     1  UNL1       -0.2951
     13 H         136.7144  140.7426  164.9594 H       1  UNL1        0.1235
     14 C         138.5390  139.8403  164.7851 C.3     1  UNL1        0.0768
     15 C         139.5114  139.2008  163.8388 C.ar    1  UNL1       -0.0079
     16 C         140.2361  137.9502  164.2398 C.ar    1  UNL1       -0.0007
     17 C         141.2085  137.3107  163.2935 C.ar    1  UNL1        0.0294
     18 C         141.4563  137.9218  161.9463 C.ar    1  UNL1        0.1401
     19 F         142.4287  137.2823  161.0000 F       1  UNL1       -0.2042
     20 C         140.7316  139.1725  161.5452 C.ar    1  UNL1        0.0294
     21 C         139.7592  139.8120  162.4915 C.ar    1  UNL1       -0.0007
     22 C         137.7386  138.6020  166.9243 C.3     1  UNL1        0.0018
     23 C         138.6518  139.5890  166.2596 C.3     1  UNL1        0.0202
     24 O         141.5302  144.5288  163.4766 O.3     1  UNL1       -0.4699
     25 C         142.1069  143.1567  163.6634 C.ar    1  UNL1        0.1386
     26 C         142.8958  142.5180  162.5589 C.ar    1  UNL1        0.0349
     27 C         143.4724  141.1460  162.7457 C.ar    1  UNL1        0.0083
     28 C         144.2613  140.5073  161.6412 C.3     1  UNL1        0.0335
     29 C         143.2602  140.4126  164.0369 C.ar    1  UNL1        0.1323
     30 F         143.8369  139.0405  164.2236 F       1  UNL1       -0.2048
     31 C         142.4714  141.0513  165.1413 C.ar    1  UNL1        0.0083
     32 C         142.2592  140.3179  166.4325 C.3     1  UNL1        0.0335
     33 C         141.8947  142.4233  164.9545 C.ar    1  UNL1        0.0349
@<TRIPOS>BOND
     1    22    23    1
     2    23    14    1
     3    14    12    1
     4    12    11    1
     5    11    10    1
     6    10     9    1
     7     9     8    1
     8     1     8    1
     9     1    24    1
    10    24    25    1
    11    25    26   ar
    12    26    27   ar
    13    27    28    1
    14    27    29   ar
    15    29    30    1
    16    29    31   ar
    17    31    32    1
    18    31    33   ar
    19     1     2    1
    20     2     3    2
    21     2     4   am
    22     4     5    1
    23    14    15    1
    24    15    16   ar
    25    16    17   ar
    26    17    18   ar
    27    18    19    1
    28    18    20   ar
    29    20    21   ar
    30    33    25   ar
    31    21    15   ar
    32    12    13    1
    33     4     6    1
    34     5     7    1
@<TRIPOS>MOLECULE
*****
 33 34 0 0 0
SMALL
GASTEIGER

@<TRIPOS>ATOM
      1 C         140.1225  144.2727  163.9473 C.3     1  UNL1        0.2430
      2 C         139.3263  144.9399  162.8652 C.2     1  UNL1        0.2845
      3 O         138.0035  144.3695  162.4472 O.2     1  UNL1       -0.2691
      4 N         139.8531  146.1774  162.2010 N.am    1  UNL1       -0.1940
      5 O         139.0569  146.8446  161.1189 O.3     1  UNL1       -0.2951
      6 H         140.7213  146.5518  162.4754 H       1  UNL1        0.1823
      7 H         138.2342  146.3520  160.9723 H       1  UNL1        0.2414
      8 C         141.5972  144.5247  164.0573 C.3     1  UNL1        0.0533
      9 C         142.5459  143.8497  163.1117 C.3     1  UNL1        0.0057
     10 C         143.7020  143.0580  163.6471 C.3     1  UNL1        0.0172
     11 C         143.4656  141.7161  164.2745 C.3     1  UNL1        0.0688
     12 N         143.4658  141.5758  165.7679 N.3     1  UNL1       -0.2951
     13 H         144.4116  141.3061  166.0382 H       1  UNL1        0.1235
     14 C         142.5329  140.6058  166.4302 C.3     1  UNL1        0.0768
     15 C         141.6338  141.0675  167.5385 C.ar    1  UNL1       -0.0079
     16 C         141.4106  142.5339  167.7616 C.ar    1  UNL1       -0.0007
     17 C         140.5114  142.9956  168.8700 C.ar    1  UNL1        0.0294
     18 C         139.8355  141.9909  169.7552 C.ar    1  UNL1        0.1401
     19 F         138.9364  142.4526  170.8635 F       1  UNL1       -0.2042
     20 C         140.0587  140.5244  169.5321 C.ar    1  UNL1        0.0294
     21 C         140.9578  140.0627  168.4237 C.ar    1  UNL1       -0.0007
     22 C         143.6883  138.2889  166.2128 C.3     1  UNL1        0.0018
     23 C         142.4991  139.1740  165.9841 C.3     1  UNL1        0.0202
     24 O         139.4441  143.3536  164.9194 O.3     1  UNL1       -0.4699
     25 C         139.4071  141.8775  164.6553 C.ar    1  UNL1        0.1386
     26 C         140.0310  141.3227  163.4092 C.ar    1  UNL1        0.0349
     27 C         139.9940  139.8466  163.1451 C.ar    1  UNL1        0.0083
     28 C         140.6179  139.2917  161.8989 C.3     1  UNL1        0.0335
     29 C         139.3330  138.9253  164.1272 C.ar    1  UNL1        0.1323
     30 F         139.2960  137.4492  163.8630 F       1  UNL1       -0.2048
     31 C         138.7091  139.4801  165.3733 C.ar    1  UNL1        0.0083
     32 C         138.0482  138.5589  166.3553 C.3     1  UNL1        0.0335
     33 C         138.7462  140.9562  165.6374 C.ar    1  UNL1        0.0349
@<TRIPOS>BOND
     1    22    23    1
     2    23    14    1
     3    14    12    1
     4    12    11    1
     5    11    10    1
     6    10     9    1
     7     9     8    1
     8     1     8    1
     9     1    24    1
    10    24    25    1
    11    25    26   ar
    12    26    27   ar
    13    27    28    1
    14    27    29   ar
    15    29    30    1
    16    29    31   ar
    17    31    32    1
    18    31    33   ar
    19     1     2    1
    20     2     3    2
    21     2     4   am
    22     4     5    1
    23    14    15    1
    24    15    16   ar
    25    16    17   ar
    26    17    18   ar
    27    18    19    1
    28    18    20   ar
    29    20    21   ar
    30    33    25   ar
    31    21    15   ar
    32    12    13    1
    33     4     6    1
    34     5     7    1
