@<TRIPOS>MOLECULE
*****
 27 26 0 0 0
SMALL
GASTEIGER

@<TRIPOS>ATOM
      1 C         139.6372  143.8457  165.6909 C.3     1  UNL1        0.0026
      2 C         138.8690  144.8270  164.8561 C.3     1  UNL1        0.0325
      3 C         138.2186  144.3793  163.5807 C.3     1  UNL1        0.1491
      4 O         138.5344  145.0789  162.2920 O.3     1  UNL1       -0.3141
      5 P         139.9423  145.0990  161.7750 P.3     1  UNL1        0.2142
      6 O         139.9527  146.5965  161.8614 O.2     1  UNL1       -0.5172
      7 O         139.9320  143.6016  161.6887 O.co2   1  UNL1       -0.4373
      8 O         141.3503  145.1191  161.2580 O.3     1  UNL1       -0.3077
      9 C         142.2925  144.0045  161.6046 C.3     1  UNL1        0.2097
     10 C         143.3605  144.2186  162.6358 C.3     1  UNL1        0.1423
     11 N         144.3752  143.1455  162.8985 N.4     1  UNL1        0.3125
     12 C         144.2559  143.3938  164.3730 C.3     1  UNL1        0.1711
     13 C         144.4946  142.8973  161.4240 C.3     1  UNL1        0.1711
     14 C         145.3899  142.0725  163.1613 C.3     1  UNL1        0.1711
     15 C         140.5777  142.8782  165.0356 C.3     1  UNL1        0.0001
     16 C         140.1872  141.4377  164.8852 C.3     1  UNL1        0.0000
     17 C         139.0715  140.8727  165.7135 C.3     1  UNL1        0.0000
     18 C         138.3605  139.6299  165.2662 C.3     1  UNL1        0.0000
     19 C         139.0304  138.6840  164.3141 C.3     1  UNL1        0.0000
     20 C         139.6808  137.4352  164.8310 C.3     1  UNL1        0.0000
     21 C         141.0962  137.1145  164.4516 C.3     1  UNL1        0.0000
     22 C         141.9692  138.1741  163.8476 C.3     1  UNL1        0.0000
     23 C         142.9617  138.9052  164.7022 C.3     1  UNL1        0.0000
     24 C         143.0229  138.6372  166.1769 C.3     1  UNL1        0.0000
     25 C         142.2089  139.4674  167.1245 C.3     1  UNL1        0.0000
     26 C         142.8385  140.9136  169.1890 C.3     1  UNL1        0.0000
     27 C         142.6086  139.5683  168.5668 C.3     1  UNL1        0.0000
@<TRIPOS>UNITY_ATOM_ATTR
7 1
charge -1
11 1
charge 1
@<TRIPOS>BOND
     1    26    27    1
     2    27    25    1
     3    25    24    1
     4    24    23    1
     5    23    22    1
     6    22    21    1
     7    21    20    1
     8    20    19    1
     9    19    18    1
    10    18    17    1
    11    17    16    1
    12    16    15    1
    13    15     1    1
    14     1     2    1
    15     2     3    1
    16     3     4    1
    17     4     5    1
    18     5     6    2
    19     5     7    1
    20     5     8    1
    21     8     9    1
    22     9    10    1
    23    10    11    1
    24    11    12    1
    25    11    13    1
    26    11    14    1
@<TRIPOS>MOLECULE
*****
 27 26 0 0 0
SMALL
GASTEIGER

@<TRIPOS>ATOM
      1 C         137.8723  144.1345  164.6301 C.3     1  UNL1        0.0026
      2 C         137.5887  143.7695  163.2032 C.3     1  UNL1        0.0325
      3 C         138.6909  143.2494  162.3287 C.3     1  UNL1        0.1491
      4 O         139.2945  144.1329  161.2775 O.3     1  UNL1       -0.3141
      5 P         140.7647  144.4294  161.3007 P.3     1  UNL1        0.2142
      6 O         140.4844  145.7720  161.9080 O.2     1  UNL1       -0.5172
      7 O         141.0450  143.0868  160.6934 O.co2   1  UNL1       -0.4373
      8 O         142.2350  144.7258  161.3239 O.3     1  UNL1       -0.3077
      9 C         143.2269  143.6007  161.3264 C.3     1  UNL1        0.2097
     10 C         144.3775  143.6174  162.2886 C.3     1  UNL1        0.1423
     11 N         144.5020  142.5426  163.3276 N.4     1  UNL1        0.3125
     12 C         144.2749  143.5594  164.4067 C.3     1  UNL1        0.1711
     13 C         144.7292  141.5258  162.2484 C.3     1  UNL1        0.1711
     14 C         144.6266  141.4678  164.3665 C.3     1  UNL1        0.1711
     15 C         139.2720  144.4660  165.0555 C.3     1  UNL1        0.0001
     16 C         140.0102  143.5494  165.9855 C.3     1  UNL1        0.0000
     17 C         141.0281  142.5909  165.4424 C.3     1  UNL1        0.0000
     18 C         140.8408  141.1140  165.6265 C.3     1  UNL1        0.0000
     19 C         139.4615  140.5475  165.7895 C.3     1  UNL1        0.0000
     20 C         139.0665  139.8951  167.0811 C.3     1  UNL1        0.0000
     21 C         139.9137  140.0808  168.3050 C.3     1  UNL1        0.0000
     22 C         139.2698  140.4015  169.6212 C.3     1  UNL1        0.0000
     23 C         139.5353  141.7205  170.2843 C.3     1  UNL1        0.0000
     24 C         140.1812  142.8320  169.5113 C.3     1  UNL1        0.0000
     25 C         141.6131  143.1940  169.7728 C.3     1  UNL1        0.0000
     26 C         143.1974  141.1390  169.6418 C.3     1  UNL1        0.0000
     27 C         142.7142  142.4444  169.0829 C.3     1  UNL1        0.0000
@<TRIPOS>UNITY_ATOM_ATTR
7 1
charge -1
11 1
charge 1
@<TRIPOS>BOND
     1    26    27    1
     2    27    25    1
     3    25    24    1
     4    24    23    1
     5    23    22    1
     6    22    21    1
     7    21    20    1
     8    20    19    1
     9    19    18    1
    10    18    17    1
    11    17    16    1
    12    16    15    1
    13    15     1    1
    14     1     2    1
    15     2     3    1
    16     3     4    1
    17     4     5    1
    18     5     6    2
    19     5     7    1
    20     5     8    1
    21     8     9    1
    22     9    10    1
    23    10    11    1
    24    11    12    1
    25    11    13    1
    26    11    14    1
@<TRIPOS>MOLECULE
*****
 27 26 0 0 0
SMALL
GASTEIGER

@<TRIPOS>ATOM
      1 C         139.9826  137.9553  164.5049 C.3     1  UNL1        0.0026
      2 C         139.9942  137.4633  163.0879 C.3     1  UNL1        0.0325
      3 C         139.4089  138.3086  161.9957 C.3     1  UNL1        0.1491
      4 O         138.0218  138.8617  162.1371 O.3     1  UNL1       -0.3141
      5 P         137.7734  140.3261  161.9277 P.3     1  UNL1        0.2142
      6 O         137.7561  140.5355  163.4129 O.2     1  UNL1       -0.5172
      7 O         137.7906  140.1167  160.4425 O.co2   1  UNL1       -0.4373
      8 O         137.5250  141.7905  161.7183 O.3     1  UNL1       -0.3077
      9 C         138.0444  142.7887  162.7102 C.3     1  UNL1        0.2097
     10 C         138.8061  143.9907  162.2359 C.3     1  UNL1        0.1423
     11 N         139.9792  144.4940  163.0237 N.4     1  UNL1        0.3125
     12 C         139.9682  145.7653  162.2277 C.3     1  UNL1        0.1711
     13 C         139.9902  143.2227  163.8197 C.3     1  UNL1        0.1711
     14 C         141.1522  144.9974  163.8114 C.3     1  UNL1        0.1711
     15 C         138.7731  137.7369  165.3647 C.3     1  UNL1        0.0001
     16 C         138.4385  138.7157  166.4511 C.3     1  UNL1        0.0000
     17 C         139.2240  139.9866  166.5836 C.3     1  UNL1        0.0000
     18 C         140.3673  140.0642  167.5516 C.3     1  UNL1        0.0000
     19 C         141.7652  140.2665  167.0467 C.3     1  UNL1        0.0000
     20 C         142.8202  139.2381  167.3278 C.3     1  UNL1        0.0000
     21 C         143.3410  138.3748  166.2170 C.3     1  UNL1        0.0000
     22 C         143.5278  138.9503  164.8445 C.3     1  UNL1        0.0000
     23 C         144.8612  139.5045  164.4387 C.3     1  UNL1        0.0000
     24 C         144.9554  140.4702  163.2947 C.3     1  UNL1        0.0000
     25 C         144.4266  141.8657  163.4457 C.3     1  UNL1        0.0000
     26 C         143.9046  142.9664  165.7405 C.3     1  UNL1        0.0000
     27 C         144.8560  142.7086  164.6099 C.3     1  UNL1        0.0000
@<TRIPOS>UNITY_ATOM_ATTR
7 1
charge -1
11 1
charge 1
@<TRIPOS>BOND
     1    26    27    1
     2    27    25    1
     3    25    24    1
     4    24    23    1
     5    23    22    1
     6    22    21    1
     7    21    20    1
     8    20    19    1
     9    19    18    1
    10    18    17    1
    11    17    16    1
    12    16    15    1
    13    15     1    1
    14     1     2    1
    15     2     3    1
    16     3     4    1
    17     4     5    1
    18     5     6    2
    19     5     7    1
    20     5     8    1
    21     8     9    1
    22     9    10    1
    23    10    11    1
    24    11    12    1
    25    11    13    1
    26    11    14    1
@<TRIPOS>MOLECULE
*****
 27 26 0 0 0
SMALL
GASTEIGER

@<TRIPOS>ATOM
      1 C         143.3423  138.8202  165.1126 C.3     1  UNL1        0.0026
      2 C         142.2151  139.1120  164.1671 C.3     1  UNL1        0.0325
      3 C         141.7732  138.0701  163.1825 C.3     1  UNL1        0.1491
      4 O         140.4887  137.3274  163.4022 O.3     1  UNL1       -0.3141
      5 P         139.2027  137.8763  162.8592 P.3     1  UNL1        0.2142
      6 O         139.7091  137.6796  161.4611 O.2     1  UNL1       -0.5172
      7 O         138.6964  138.0730  164.2574 O.co2   1  UNL1       -0.4373
      8 O         137.9166  138.4252  162.3163 O.3     1  UNL1       -0.3077
      9 C         137.8406  139.8554  161.8703 C.3     1  UNL1        0.2097
     10 C         138.7850  140.8706  162.4424 C.3     1  UNL1        0.1423
     11 N         138.2921  142.2461  162.7818 N.4     1  UNL1        0.3125
     12 C         138.3022  141.8901  164.2389 C.3     1  UNL1        0.1711
     13 C         138.2821  142.6020  161.3247 C.3     1  UNL1        0.1711
     14 C         137.7992  143.6215  163.1212 C.3     1  UNL1        0.1711
     15 C         144.7184  139.3421  164.8229 C.3     1  UNL1        0.0001
     16 C         144.9488  140.2322  163.6377 C.3     1  UNL1        0.0000
     17 C         145.6111  141.5658  163.8187 C.3     1  UNL1        0.0000
     18 C         144.9358  142.8116  163.3267 C.3     1  UNL1        0.0000
     19 C         143.9688  143.5402  164.2121 C.3     1  UNL1        0.0000
     20 C         142.5902  142.9904  164.4294 C.3     1  UNL1        0.0000
     21 C         142.1818  142.5053  165.7888 C.3     1  UNL1        0.0000
     22 C         143.2207  142.2731  166.8456 C.3     1  UNL1        0.0000
     23 C         142.8627  141.5305  168.0987 C.3     1  UNL1        0.0000
     24 C         143.2399  142.0927  169.4373 C.3     1  UNL1        0.0000
     25 C         142.3559  143.1066  170.1010 C.3     1  UNL1        0.0000
     26 C         139.8258  142.5698  170.3464 C.3     1  UNL1        0.0000
     27 C         140.9396  143.2836  169.6395 C.3     1  UNL1        0.0000
@<TRIPOS>UNITY_ATOM_ATTR
7 1
charge -1
11 1
charge 1
@<TRIPOS>BOND
     1    26    27    1
     2    27    25    1
     3    25    24    1
     4    24    23    1
     5    23    22    1
     6    22    21    1
     7    21    20    1
     8    20    19    1
     9    19    18    1
    10    18    17    1
    11    17    16    1
    12    16    15    1
    13    15     1    1
    14     1     2    1
    15     2     3    1
    16     3     4    1
    17     4     5    1
    18     5     6    2
    19     5     7    1
    20     5     8    1
    21     8     9    1
    22     9    10    1
    23    10    11    1
    24    11    12    1
    25    11    13    1
    26    11    14    1
@<TRIPOS>MOLECULE
*****
 27 26 0 0 0
SMALL
GASTEIGER

@<TRIPOS>ATOM
      1 C         139.4838  143.3746  165.4375 C.3     1  UNL1        0.0026
      2 C         139.0038  144.6079  164.7314 C.3     1  UNL1        0.0325
      3 C         138.1098  144.4861  163.5330 C.3     1  UNL1        0.1491
      4 O         138.5164  145.1039  162.2281 O.3     1  UNL1       -0.3141
      5 P         139.9574  145.0970  161.8118 P.3     1  UNL1        0.2142
      6 O         139.9390  143.5976  161.7730 O.2     1  UNL1       -0.5172
      7 O         139.9759  146.5963  161.8505 O.co2   1  UNL1       -0.4373
      8 O         141.3985  145.0900  161.3954 O.3     1  UNL1       -0.3077
      9 C         142.3230  144.0273  161.9110 C.3     1  UNL1        0.2097
     10 C         143.3727  144.3738  162.9249 C.3     1  UNL1        0.1423
     11 N         144.3296  143.3224  163.4032 N.4     1  UNL1        0.3125
     12 C         144.2955  143.9175  164.7797 C.3     1  UNL1        0.1711
     13 C         144.3637  142.7273  162.0267 C.3     1  UNL1        0.1711
     14 C         145.2865  142.2709  163.8815 C.3     1  UNL1        0.1711
     15 C         140.9165  142.9484  165.3124 C.3     1  UNL1        0.0001
     16 C         141.2505  141.5910  164.7683 C.3     1  UNL1        0.0000
     17 C         142.2438  140.7213  165.4801 C.3     1  UNL1        0.0000
     18 C         141.7693  139.6755  166.4451 C.3     1  UNL1        0.0000
     19 C         141.2070  140.0819  167.7749 C.3     1  UNL1        0.0000
     20 C         139.7288  140.0073  168.0186 C.3     1  UNL1        0.0000
     21 C         138.7828  139.8891  166.8605 C.3     1  UNL1        0.0000
     22 C         137.8555  138.7139  166.7665 C.3     1  UNL1        0.0000
     23 C         138.2619  137.4983  165.9873 C.3     1  UNL1        0.0000
     24 C         139.3098  137.6077  164.9195 C.3     1  UNL1        0.0000
     25 C         138.9888  138.2853  163.6204 C.3     1  UNL1        0.0000
     26 C         139.0665  138.1805  161.0256 C.3     1  UNL1        0.0000
     27 C         139.6701  137.8475  162.3577 C.3     1  UNL1        0.0000
@<TRIPOS>UNITY_ATOM_ATTR
7 1
charge -1
11 1
charge 1
@<TRIPOS>BOND
     1    26    27    1
     2    27    25    1
     3    25    24    1
     4    24    23    1
     5    23    22    1
     6    22    21    1
     7    21    20    1
     8    20    19    1
     9    19    18    1
    10    18    17    1
    11    17    16    1
    12    16    15    1
    13    15     1    1
    14     1     2    1
    15     2     3    1
    16     3     4    1
    17     4     5    1
    18     5     6    2
    19     5     7    1
    20     5     8    1
    21     8     9    1
    22     9    10    1
    23    10    11    1
    24    11    12    1
    25    11    13    1
    26    11    14    1
@<TRIPOS>MOLECULE
*****
 27 26 0 0 0
SMALL
GASTEIGER

@<TRIPOS>ATOM
      1 C         139.1658  144.3970  165.4866 C.3     1  UNL1        0.0026
      2 C         137.9995  144.3970  164.5434 C.3     1  UNL1        0.0325
      3 C         138.2304  144.5031  163.0650 C.3     1  UNL1        0.1491
      4 O         137.7432  143.4190  162.1501 O.3     1  UNL1       -0.3141
      5 P         138.3392  142.0449  162.2315 P.3     1  UNL1        0.2142
      6 O         139.6531  142.5863  161.7514 O.2     1  UNL1       -0.5172
      7 O         137.0253  141.5034  162.7115 O.co2   1  UNL1       -0.4373
      8 O         138.9351  140.6707  162.3129 O.3     1  UNL1       -0.3077
      9 C         140.4227  140.4928  162.2396 C.3     1  UNL1        0.2097
     10 C         141.1086  139.5257  163.1584 C.3     1  UNL1        0.1423
     11 N         142.5846  139.6390  163.4003 N.4     1  UNL1        0.3125
     12 C         142.6681  140.7338  162.3783 C.3     1  UNL1        0.1711
     13 C         142.5012  138.5442  164.4223 C.3     1  UNL1        0.1711
     14 C         144.0606  139.7523  163.6422 C.3     1  UNL1        0.1711
     15 C         139.8552  143.1089  165.8268 C.3     1  UNL1        0.0001
     16 C         141.2637  142.8687  165.3702 C.3     1  UNL1        0.0000
     17 C         142.1302  141.8838  166.0976 C.3     1  UNL1        0.0000
     18 C         142.9837  142.3391  167.2441 C.3     1  UNL1        0.0000
     19 C         142.9671  141.5815  168.5385 C.3     1  UNL1        0.0000
     20 C         142.6715  140.1109  168.5431 C.3     1  UNL1        0.0000
     21 C         141.7693  139.5305  169.5916 C.3     1  UNL1        0.0000
     22 C         140.5700  140.3006  170.0589 C.3     1  UNL1        0.0000
     23 C         139.5162  140.7168  169.0759 C.3     1  UNL1        0.0000
     24 C         138.8967  139.6990  168.1646 C.3     1  UNL1        0.0000
     25 C         139.3445  139.5999  166.7364 C.3     1  UNL1        0.0000
     26 C         138.7455  137.5710  165.2282 C.3     1  UNL1        0.0000
     27 C         138.4532  138.9598  165.7137 C.3     1  UNL1        0.0000
@<TRIPOS>UNITY_ATOM_ATTR
7 1
charge -1
11 1
charge 1
@<TRIPOS>BOND
     1    26    27    1
     2    27    25    1
     3    25    24    1
     4    24    23    1
     5    23    22    1
     6    22    21    1
     7    21    20    1
     8    20    19    1
     9    19    18    1
    10    18    17    1
    11    17    16    1
    12    16    15    1
    13    15     1    1
    14     1     2    1
    15     2     3    1
    16     3     4    1
    17     4     5    1
    18     5     6    2
    19     5     7    1
    20     5     8    1
    21     8     9    1
    22     9    10    1
    23    10    11    1
    24    11    12    1
    25    11    13    1
    26    11    14    1
@<TRIPOS>MOLECULE
*****
 27 26 0 0 0
SMALL
GASTEIGER

@<TRIPOS>ATOM
      1 C         138.6477  139.5133  165.0221 C.3     1  UNL1        0.0026
      2 C         138.1017  140.8169  164.5198 C.3     1  UNL1        0.0325
      3 C         137.7237  140.9652  163.0758 C.3     1  UNL1        0.1491
      4 O         137.2408  142.2879  162.5589 O.3     1  UNL1       -0.3141
      5 P         138.2195  143.2767  161.9983 P.3     1  UNL1        0.2142
      6 O         137.5234  144.3830  162.7342 O.2     1  UNL1       -0.5172
      7 O         138.9156  142.1704  161.2625 O.co2   1  UNL1       -0.4373
      8 O         139.1984  144.2655  161.4377 O.3     1  UNL1       -0.3077
      9 C         140.5822  144.3574  162.0092 C.3     1  UNL1        0.2097
     10 C         141.7754  144.2112  161.1121 C.3     1  UNL1        0.1423
     11 N         143.1215  143.9043  161.6985 N.4     1  UNL1        0.3125
     12 C         142.7984  144.7594  162.8878 C.3     1  UNL1        0.1711
     13 C         143.4446  143.0491  160.5093 C.3     1  UNL1        0.1711
     14 C         144.4676  143.5973  162.2849 C.3     1  UNL1        0.1711
     15 C         138.2375  138.9978  166.3696 C.3     1  UNL1        0.0001
     16 C         138.8970  139.5282  167.6081 C.3     1  UNL1        0.0000
     17 C         140.3037  140.0452  167.5461 C.3     1  UNL1        0.0000
     18 C         140.6016  141.4590  167.9491 C.3     1  UNL1        0.0000
     19 C         140.2876  142.5878  167.0126 C.3     1  UNL1        0.0000
     20 C         141.1079  142.7834  165.7721 C.3     1  UNL1        0.0000
     21 C         142.6010  142.6523  165.8318 C.3     1  UNL1        0.0000
     22 C         143.2680  141.4219  165.2925 C.3     1  UNL1        0.0000
     23 C         142.4779  140.4312  164.4899 C.3     1  UNL1        0.0000
     24 C         142.9129  138.9968  164.4305 C.3     1  UNL1        0.0000
     25 C         142.1467  137.9490  165.1821 C.3     1  UNL1        0.0000
     26 C         140.9321  137.2637  162.9900 C.3     1  UNL1        0.0000
     27 C         141.1410  137.0970  164.4660 C.3     1  UNL1        0.0000
@<TRIPOS>UNITY_ATOM_ATTR
7 1
charge -1
11 1
charge 1
@<TRIPOS>BOND
     1    26    27    1
     2    27    25    1
     3    25    24    1
     4    24    23    1
     5    23    22    1
     6    22    21    1
     7    21    20    1
     8    20    19    1
     9    19    18    1
    10    18    17    1
    11    17    16    1
    12    16    15    1
    13    15     1    1
    14     1     2    1
    15     2     3    1
    16     3     4    1
    17     4     5    1
    18     5     6    2
    19     5     7    1
    20     5     8    1
    21     8     9    1
    22     9    10    1
    23    10    11    1
    24    11    12    1
    25    11    13    1
    26    11    14    1
@<TRIPOS>MOLECULE
*****
 27 26 0 0 0
SMALL
GASTEIGER

@<TRIPOS>ATOM
      1 C         138.5295  139.1148  164.5408 C.3     1  UNL1        0.0026
      2 C         139.6228  139.7346  163.7220 C.3     1  UNL1        0.0325
      3 C         139.2887  140.7544  162.6740 C.3     1  UNL1        0.1491
      4 O         137.9494  141.4298  162.6846 O.3     1  UNL1       -0.3141
      5 P         137.8646  142.9273  162.6927 P.3     1  UNL1        0.2142
      6 O         137.7793  142.9305  161.1951 O.2     1  UNL1       -0.5172
      7 O         137.9500  142.9241  164.1902 O.co2   1  UNL1       -0.4373
      8 O         137.7799  144.4249  162.7008 O.3     1  UNL1       -0.3077
      9 C         138.9768  145.2417  163.0884 C.3     1  UNL1        0.2097
     10 C         139.9898  145.6267  162.0514 C.3     1  UNL1        0.1423
     11 N         141.2972  144.8956  161.9722 N.4     1  UNL1        0.3125
     12 C         141.1948  144.8746  160.4758 C.3     1  UNL1        0.1711
     13 C         141.3995  144.9166  163.4685 C.3     1  UNL1        0.1711
     14 C         142.6045  144.1645  161.8930 C.3     1  UNL1        0.1711
     15 C         138.7649  138.7958  165.9875 C.3     1  UNL1        0.0001
     16 C         139.3380  139.8379  166.9017 C.3     1  UNL1        0.0000
     17 C         138.9763  139.8394  168.3574 C.3     1  UNL1        0.0000
     18 C         139.8702  140.5195  169.3516 C.3     1  UNL1        0.0000
     19 C         141.0232  139.7745  169.9563 C.3     1  UNL1        0.0000
     20 C         142.3930  139.8990  169.3580 C.3     1  UNL1        0.0000
     21 C         143.1584  141.1816  169.4969 C.3     1  UNL1        0.0000
     22 C         142.8476  142.3415  168.5980 C.3     1  UNL1        0.0000
     23 C         143.2835  142.3160  167.1630 C.3     1  UNL1        0.0000
     24 C         142.3534  141.7995  166.1056 C.3     1  UNL1        0.0000
     25 C         142.9042  141.0958  164.9009 C.3     1  UNL1        0.0000
     26 C         142.7006  138.7190  165.9301 C.3     1  UNL1        0.0000
     27 C         143.3973  139.6839  165.0171 C.3     1  UNL1        0.0000
@<TRIPOS>UNITY_ATOM_ATTR
7 1
charge -1
11 1
charge 1
@<TRIPOS>BOND
     1    26    27    1
     2    27    25    1
     3    25    24    1
     4    24    23    1
     5    23    22    1
     6    22    21    1
     7    21    20    1
     8    20    19    1
     9    19    18    1
    10    18    17    1
    11    17    16    1
    12    16    15    1
    13    15     1    1
    14     1     2    1
    15     2     3    1
    16     3     4    1
    17     4     5    1
    18     5     6    2
    19     5     7    1
    20     5     8    1
    21     8     9    1
    22     9    10    1
    23    10    11    1
    24    11    12    1
    25    11    13    1
    26    11    14    1
@<TRIPOS>MOLECULE
*****
 27 26 0 0 0
SMALL
GASTEIGER

@<TRIPOS>ATOM
      1 C         141.7347  143.9431  164.2907 C.3     1  UNL1        0.0026
      2 C         140.8582  143.9518  163.0735 C.3     1  UNL1        0.0325
      3 C         140.0050  145.1483  162.7722 C.3     1  UNL1        0.1491
      4 O         138.5383  144.9764  162.5090 O.3     1  UNL1       -0.3141
      5 P         137.8840  143.6481  162.7487 P.3     1  UNL1        0.2142
      6 O         138.0267  143.3152  161.2931 O.2     1  UNL1       -0.5172
      7 O         137.7413  143.9810  164.2042 O.co2   1  UNL1       -0.4373
      8 O         137.2296  142.3198  162.9884 O.3     1  UNL1       -0.3077
      9 C         138.0608  141.1339  163.3791 C.3     1  UNL1        0.2097
     10 C         138.2604  140.0061  162.4106 C.3     1  UNL1        0.1423
     11 N         139.4552  139.1084  162.5405 N.4     1  UNL1        0.3125
     12 C         138.5526  137.9107  162.5658 C.3     1  UNL1        0.1711
     13 C         140.3578  140.3062  162.5151 C.3     1  UNL1        0.1711
     14 C         140.6499  138.2108  162.6704 C.3     1  UNL1        0.1711
     15 C         142.6947  142.8128  164.5155 C.3     1  UNL1        0.0001
     16 C         144.1446  143.0998  164.7714 C.3     1  UNL1        0.0000
     17 C         145.2023  142.2712  164.1046 C.3     1  UNL1        0.0000
     18 C         144.8570  140.9228  163.5454 C.3     1  UNL1        0.0000
     19 C         145.0055  139.6971  164.3972 C.3     1  UNL1        0.0000
     20 C         143.7872  138.9670  164.8796 C.3     1  UNL1        0.0000
     21 C         143.0237  139.4823  166.0635 C.3     1  UNL1        0.0000
     22 C         141.5433  139.2593  166.1561 C.3     1  UNL1        0.0000
     23 C         140.6068  140.4310  166.1530 C.3     1  UNL1        0.0000
     24 C         140.0379  140.9398  167.4443 C.3     1  UNL1        0.0000
     25 C         140.5877  142.1896  168.0653 C.3     1  UNL1        0.0000
     26 C         143.1693  142.3761  168.2907 C.3     1  UNL1        0.0000
     27 C         141.8260  142.1256  168.9094 C.3     1  UNL1        0.0000
@<TRIPOS>UNITY_ATOM_ATTR
7 1
charge -1
11 1
charge 1
@<TRIPOS>BOND
     1    26    27    1
     2    27    25    1
     3    25    24    1
     4    24    23    1
     5    23    22    1
     6    22    21    1
     7    21    20    1
     8    20    19    1
     9    19    18    1
    10    18    17    1
    11    17    16    1
    12    16    15    1
    13    15     1    1
    14     1     2    1
    15     2     3    1
    16     3     4    1
    17     4     5    1
    18     5     6    2
    19     5     7    1
    20     5     8    1
    21     8     9    1
    22     9    10    1
    23    10    11    1
    24    11    12    1
    25    11    13    1
    26    11    14    1
