@<TRIPOS>MOLECULE
*****
 25 27 0 0 0
SMALL
GASTEIGER

@<TRIPOS>ATOM
      1 C         143.4861  141.9089  165.6999 C.ar    1  UNL1       -0.0050
      2 C         144.1551  143.0118  164.9344 C.ar    1  UNL1       -0.0028
      3 C         144.8828  142.7052  163.6591 C.ar    1  UNL1        0.0028
      4 C         144.9414  141.2957  163.1493 C.ar    1  UNL1        0.0369
      5 C         144.2724  140.1928  163.9147 C.ar    1  UNL1        0.1388
      6 C         143.5447  140.4994  165.1900 C.ar    1  UNL1        0.0339
      7 C         142.2924  142.7155  169.3041 C.3     1  UNL1        0.1315
      8 C         140.9846  142.6587  168.5715 C.3     1  UNL1        0.0268
      9 C         141.2726  142.3497  167.1323 C.3     1  UNL1        0.0221
     10 C         142.7583  142.2154  166.9753 C.3     1  UNL1        0.0773
     11 N         143.3886  142.4415  168.3175 N.3     1  UNL1       -0.2890
     12 H         144.0214  143.2402  168.2727 H       1  UNL1        0.1239
     13 N         143.4827  144.0100  171.2165 N.am    1  UNL1       -0.3277
     14 C         142.4723  142.9969  170.7664 C.2     1  UNL1        0.2336
     15 O         141.6418  142.2651  171.7788 O.2     1  UNL1       -0.2739
     16 H         143.6008  144.1947  172.1763 H       1  UNL1        0.1450
     17 H         144.0278  144.4903  170.5521 H       1  UNL1        0.1450
     18 O         144.3310  138.7834  163.4049 O.3     1  UNL1       -0.4707
     19 C         143.3203  138.3048  162.4052 C.3     1  UNL1        0.2320
     20 C         141.8997  138.0728  162.8271 C.ar    1  UNL1        0.0212
     21 C         140.7850  138.2535  161.8397 C.ar    1  UNL1       -0.0007
     22 C         139.3644  138.0216  162.2616 C.ar    1  UNL1       -0.0002
     23 C         139.0585  137.6090  163.6710 C.ar    1  UNL1       -0.0000
     24 C         140.1731  137.4284  164.6583 C.ar    1  UNL1       -0.0002
     25 C         141.5937  137.6603  164.2364 C.ar    1  UNL1       -0.0007
@<TRIPOS>BOND
     1    13    14   am
     2    14    15    2
     3     7    14    1
     4     7     8    1
     5     8     9    1
     6     9    10    1
     7    10     1    1
     8     1     2   ar
     9     2     3   ar
    10     3     4   ar
    11     4     5   ar
    12     5    18    1
    13    18    19    1
    14    19    20    1
    15    20    21   ar
    16    21    22   ar
    17    22    23   ar
    18    23    24   ar
    19    24    25   ar
    20     5     6   ar
    21    10    11    1
    22    11     7    1
    23     6     1   ar
    24    25    20   ar
    25    13    16    1
    26    13    17    1
    27    11    12    1
@<TRIPOS>MOLECULE
*****
 25 27 0 0 0
SMALL
GASTEIGER

@<TRIPOS>ATOM
      1 C         141.3719  139.1464  165.9771 C.ar    1  UNL1       -0.0050
      2 C         140.4373  138.3406  165.1243 C.ar    1  UNL1       -0.0028
      3 C         140.8912  137.8323  163.7881 C.ar    1  UNL1        0.0028
      4 C         142.2796  138.1298  163.3046 C.ar    1  UNL1        0.0369
      5 C         143.2142  138.9356  164.1573 C.ar    1  UNL1        0.1388
      6 C         142.7603  139.4439  165.4936 C.ar    1  UNL1        0.0339
      7 C         140.9291  140.4312  169.6128 C.3     1  UNL1        0.1315
      8 C         139.5101  140.4430  169.1265 C.3     1  UNL1        0.0268
      9 C         139.5034  139.9631  167.7053 C.3     1  UNL1        0.0221
     10 C         140.9181  139.6548  167.3134 C.3     1  UNL1        0.0773
     11 N         141.7992  139.9441  168.4923 N.3     1  UNL1       -0.2890
     12 H         142.4814  140.6616  168.2468 H       1  UNL1        0.1239
     13 N         142.7212  140.3550  171.4924 N.am    1  UNL1       -0.3277
     14 C         141.3960  140.8356  170.9798 C.2     1  UNL1        0.2336
     15 O         140.5376  141.7207  171.8342 O.2     1  UNL1       -0.2739
     16 H         143.0275  140.6204  172.3896 H       1  UNL1        0.1450
     17 H         143.2845  139.7741  170.9317 H       1  UNL1        0.1450
     18 O         144.6026  139.2330  163.6738 O.3     1  UNL1       -0.4707
     19 C         145.3402  140.4283  164.2005 C.3     1  UNL1        0.2320
     20 C         144.8847  141.8106  163.8374 C.ar    1  UNL1        0.0212
     21 C         144.4582  142.7662  164.9121 C.ar    1  UNL1       -0.0007
     22 C         144.0027  144.1485  164.5490 C.ar    1  UNL1       -0.0002
     23 C         143.9738  144.5751  163.1112 C.ar    1  UNL1       -0.0000
     24 C         144.4003  143.6195  162.0366 C.ar    1  UNL1       -0.0002
     25 C         144.8557  142.2372  162.3997 C.ar    1  UNL1       -0.0007
@<TRIPOS>BOND
     1    13    14   am
     2    14    15    2
     3     7    14    1
     4     7     8    1
     5     8     9    1
     6     9    10    1
     7    10     1    1
     8     1     2   ar
     9     2     3   ar
    10     3     4   ar
    11     4     5   ar
    12     5    18    1
    13    18    19    1
    14    19    20    1
    15    20    21   ar
    16    21    22   ar
    17    22    23   ar
    18    23    24   ar
    19    24    25   ar
    20     5     6   ar
    21    10    11    1
    22    11     7    1
    23     6     1   ar
    24    25    20   ar
    25    13    16    1
    26    13    17    1
    27    11    12    1
@<TRIPOS>MOLECULE
*****
 25 27 0 0 0
SMALL
GASTEIGER

@<TRIPOS>ATOM
      1 C         139.9529  142.2268  166.1846 C.ar    1  UNL1       -0.0050
      2 C         139.1628  141.0591  165.6726 C.ar    1  UNL1       -0.0028
      3 C         138.2677  141.2241  164.4803 C.ar    1  UNL1        0.0028
      4 C         138.1628  142.5568  163.8000 C.ar    1  UNL1        0.0369
      5 C         138.9529  143.7245  164.3119 C.ar    1  UNL1        0.1388
      6 C         139.8480  143.5595  165.5042 C.ar    1  UNL1        0.0339
      7 C         141.6261  141.6797  169.6439 C.3     1  UNL1        0.1315
      8 C         142.8248  141.9363  168.7794 C.3     1  UNL1        0.0268
      9 C         142.3439  142.1725  167.3784 C.3     1  UNL1        0.0221
     10 C         140.8480  142.0618  167.3769 C.3     1  UNL1        0.0773
     11 N         140.4044  141.7573  168.7770 N.3     1  UNL1       -0.2890
     12 H         139.9086  140.8661  168.7970 H       1  UNL1        0.1239
     13 N         142.6513  140.4369  171.6821 N.am    1  UNL1       -0.3277
     14 C         141.6456  141.3954  171.1166 C.2     1  UNL1        0.2336
     15 O         140.6595  142.0697  172.0238 O.2     1  UNL1       -0.2739
     16 H         142.6641  140.2503  172.6487 H       1  UNL1        0.1450
     17 H         143.2985  139.9944  171.0867 H       1  UNL1        0.1450
     18 O         138.8480  145.0572  163.6315 O.3     1  UNL1       -0.4707
     19 C         139.8049  145.4162  162.5336 C.3     1  UNL1        0.2320
     20 C         141.2371  144.9776  162.6138 C.ar    1  UNL1        0.0212
     21 C         142.1256  145.5118  163.6979 C.ar    1  UNL1       -0.0007
     22 C         143.5578  145.0732  163.7781 C.ar    1  UNL1       -0.0002
     23 C         144.1015  144.1003  162.7741 C.ar    1  UNL1       -0.0000
     24 C         143.2130  143.5661  161.6900 C.ar    1  UNL1       -0.0002
     25 C         141.7808  144.0047  161.6099 C.ar    1  UNL1       -0.0007
@<TRIPOS>BOND
     1    13    14   am
     2    14    15    2
     3     7    14    1
     4     7     8    1
     5     8     9    1
     6     9    10    1
     7    10     1    1
     8     1     2   ar
     9     2     3   ar
    10     3     4   ar
    11     4     5   ar
    12     5    18    1
    13    18    19    1
    14    19    20    1
    15    20    21   ar
    16    21    22   ar
    17    22    23   ar
    18    23    24   ar
    19    24    25   ar
    20     5     6   ar
    21    10    11    1
    22    11     7    1
    23     6     1   ar
    24    25    20   ar
    25    13    16    1
    26    13    17    1
    27    11    12    1
@<TRIPOS>MOLECULE
*****
 25 27 0 0 0
SMALL
GASTEIGER

@<TRIPOS>ATOM
      1 C         139.4588  139.3285  165.4669 C.ar    1  UNL1       -0.0050
      2 C         139.7158  138.0271  164.7667 C.ar    1  UNL1       -0.0028
      3 C         139.1026  137.7645  163.4232 C.ar    1  UNL1        0.0028
      4 C         138.2324  138.8033  162.7800 C.ar    1  UNL1        0.0369
      5 C         137.9754  140.1046  163.4802 C.ar    1  UNL1        0.1388
      6 C         138.5886  140.3672  164.8237 C.ar    1  UNL1        0.0339
      7 C         140.3328  140.0058  169.1875 C.3     1  UNL1        0.1315
      8 C         141.6988  139.9849  168.5681 C.3     1  UNL1        0.0268
      9 C         141.5376  139.7286  167.0990 C.3     1  UNL1        0.0221
     10 C         140.0721  139.5911  166.8104 C.3     1  UNL1        0.0773
     11 N         139.3274  139.7624  168.1012 N.3     1  UNL1       -0.2890
     12 H         138.7928  138.9185  168.3071 H       1  UNL1        0.1239
     13 N         139.6778  139.0681  171.5203 N.am    1  UNL1       -0.3277
     14 C         140.0260  140.2305  170.6386 C.2     1  UNL1        0.2336
     15 O         140.0674  141.6177  171.2078 O.2     1  UNL1       -0.2739
     16 H         139.4764  139.2157  172.4727 H       1  UNL1        0.1450
     17 H         139.6506  138.1577  171.1468 H       1  UNL1        0.1450
     18 O         137.1052  141.1434  162.8370 O.3     1  UNL1       -0.4707
     19 C         137.7281  142.2981  162.1100 C.3     1  UNL1        0.2320
     20 C         138.7726  143.1352  162.7870 C.ar    1  UNL1        0.0212
     21 C         138.3881  144.0476  163.9138 C.ar    1  UNL1       -0.0007
     22 C         139.4326  144.8847  164.5908 C.ar    1  UNL1       -0.0002
     23 C         140.8616  144.8093  164.1410 C.ar    1  UNL1       -0.0000
     24 C         141.2461  143.8968  163.0143 C.ar    1  UNL1       -0.0002
     25 C         140.2016  143.0598  162.3373 C.ar    1  UNL1       -0.0007
@<TRIPOS>BOND
     1    13    14   am
     2    14    15    2
     3     7    14    1
     4     7     8    1
     5     8     9    1
     6     9    10    1
     7    10     1    1
     8     1     2   ar
     9     2     3   ar
    10     3     4   ar
    11     4     5   ar
    12     5    18    1
    13    18    19    1
    14    19    20    1
    15    20    21   ar
    16    21    22   ar
    17    22    23   ar
    18    23    24   ar
    19    24    25   ar
    20     5     6   ar
    21    10    11    1
    22    11     7    1
    23     6     1   ar
    24    25    20   ar
    25    13    16    1
    26    13    17    1
    27    11    12    1
@<TRIPOS>MOLECULE
*****
 25 27 0 0 0
SMALL
GASTEIGER

@<TRIPOS>ATOM
      1 C         142.0388  139.0844  165.8598 C.ar    1  UNL1       -0.0050
      2 C         141.1912  138.1263  165.0765 C.ar    1  UNL1       -0.0028
      3 C         141.5846  137.7460  163.6799 C.ar    1  UNL1        0.0028
      4 C         142.8256  138.3237  163.0666 C.ar    1  UNL1        0.0369
      5 C         143.6732  139.2818  163.8499 C.ar    1  UNL1        0.1388
      6 C         143.2798  139.6622  165.2465 C.ar    1  UNL1        0.0339
      7 C         140.3444  140.2002  169.1688 C.3     1  UNL1        0.1315
      8 C         141.7358  139.9004  169.6424 C.3     1  UNL1        0.0268
      9 C         142.5398  139.4459  168.4605 C.3     1  UNL1        0.0221
     10 C         141.6454  139.4649  167.2564 C.3     1  UNL1        0.0773
     11 N         140.2886  139.9310  167.6942 N.3     1  UNL1       -0.2890
     12 H         139.5951  139.2086  167.5002 H       1  UNL1        0.1239
     13 N         138.0487  139.7778  170.3096 N.am    1  UNL1       -0.3277
     14 C         139.2083  140.6842  170.0204 C.2     1  UNL1        0.2336
     15 O         139.2319  142.0746  170.5827 O.2     1  UNL1       -0.2739
     16 H         137.3031  140.0955  170.8685 H       1  UNL1        0.1450
     17 H         138.0332  138.8652  169.9405 H       1  UNL1        0.1450
     18 O         144.9142  139.8595  163.2366 O.3     1  UNL1       -0.4707
     19 C         145.5816  141.0446  163.8691 C.3     1  UNL1        0.2320
     20 C         144.9393  142.3978  163.7900 C.ar    1  UNL1        0.0212
     21 C         144.6928  143.1853  165.0427 C.ar    1  UNL1       -0.0007
     22 C         144.0504  144.5385  164.9637 C.ar    1  UNL1       -0.0002
     23 C         143.6546  145.1042  163.6320 C.ar    1  UNL1       -0.0000
     24 C         143.9011  144.3167  162.3794 C.ar    1  UNL1       -0.0002
     25 C         144.5435  142.9635  162.4584 C.ar    1  UNL1       -0.0007
@<TRIPOS>BOND
     1    13    14   am
     2    14    15    2
     3     7    14    1
     4     7     8    1
     5     8     9    1
     6     9    10    1
     7    10     1    1
     8     1     2   ar
     9     2     3   ar
    10     3     4   ar
    11     4     5   ar
    12     5    18    1
    13    18    19    1
    14    19    20    1
    15    20    21   ar
    16    21    22   ar
    17    22    23   ar
    18    23    24   ar
    19    24    25   ar
    20     5     6   ar
    21    10    11    1
    22    11     7    1
    23     6     1   ar
    24    25    20   ar
    25    13    16    1
    26    13    17    1
    27    11    12    1
@<TRIPOS>MOLECULE
*****
 25 27 0 0 0
SMALL
GASTEIGER

@<TRIPOS>ATOM
      1 C         139.7960  142.6917  166.1371 C.ar    1  UNL1       -0.0050
      2 C         139.6257  144.1197  165.7109 C.ar    1  UNL1       -0.0028
      3 C         138.7130  144.4579  164.5696 C.ar    1  UNL1        0.0028
      4 C         137.9706  143.3682  163.8545 C.ar    1  UNL1        0.0369
      5 C         138.1410  141.9401  164.2807 C.ar    1  UNL1        0.1388
      6 C         139.0536  141.6019  165.4220 C.ar    1  UNL1        0.0339
      7 C         141.5229  141.7959  169.4958 C.3     1  UNL1        0.1315
      8 C         142.7036  141.8696  168.5735 C.3     1  UNL1        0.0268
      9 C         142.2003  142.2141  167.2031 C.3     1  UNL1        0.0221
     10 C         140.7087  142.3533  167.2784 C.3     1  UNL1        0.0773
     11 N         140.2900  142.0949  168.6954 N.3     1  UNL1       -0.2890
     12 H         139.6541  141.2981  168.7286 H       1  UNL1        0.1239
     13 N         142.5654  140.4889  171.4845 N.am    1  UNL1       -0.3277
     14 C         141.5673  141.4789  170.9613 C.2     1  UNL1        0.2336
     15 O         140.6137  142.1518  171.9035 O.2     1  UNL1       -0.2739
     16 H         142.5946  140.2809  172.4464 H       1  UNL1        0.1450
     17 H         143.1913  140.0473  170.8662 H       1  UNL1        0.1450
     18 O         137.3986  140.8504  163.5657 O.3     1  UNL1       -0.4707
     19 C         138.1210  139.9612  162.5975 C.3     1  UNL1        0.2320
     20 C         139.1431  138.9832  163.0964 C.ar    1  UNL1        0.0212
     21 C         138.9110  138.2462  164.3821 C.ar    1  UNL1       -0.0007
     22 C         139.9331  137.2682  164.8809 C.ar    1  UNL1       -0.0002
     23 C         141.1873  137.0272  164.0941 C.ar    1  UNL1       -0.0000
     24 C         141.4194  137.7643  162.8084 C.ar    1  UNL1       -0.0002
     25 C         140.3973  138.7423  162.3096 C.ar    1  UNL1       -0.0007
@<TRIPOS>BOND
     1    13    14   am
     2    14    15    2
     3     7    14    1
     4     7     8    1
     5     8     9    1
     6     9    10    1
     7    10     1    1
     8     1     2   ar
     9     2     3   ar
    10     3     4   ar
    11     4     5   ar
    12     5    18    1
    13    18    19    1
    14    19    20    1
    15    20    21   ar
    16    21    22   ar
    17    22    23   ar
    18    23    24   ar
    19    24    25   ar
    20     5     6   ar
    21    10    11    1
    22    11     7    1
    23     6     1   ar
    24    25    20   ar
    25    13    16    1
    26    13    17    1
    27    11    12    1
@<TRIPOS>MOLECULE
*****
 25 27 0 0 0
SMALL
GASTEIGER

@<TRIPOS>ATOM
      1 C         139.7855  140.2029  167.7571 C.ar    1  UNL1       -0.0050
      2 C         138.5470  139.4187  168.0751 C.ar    1  UNL1       -0.0028
      3 C         137.8063  138.7101  166.9801 C.ar    1  UNL1        0.0028
      4 C         138.3040  138.7857  165.5671 C.ar    1  UNL1        0.0369
      5 C         139.5425  139.5699  165.2491 C.ar    1  UNL1        0.1388
      6 C         140.2832  140.2785  166.3441 C.ar    1  UNL1        0.0339
      7 C         142.1970  142.2041  170.0474 C.3     1  UNL1        0.1315
      8 C         141.1356  141.7997  171.0272 C.3     1  UNL1        0.0268
      9 C         140.1031  141.0009  170.2885 C.3     1  UNL1        0.0221
     10 C         140.5264  140.9115  168.8522 C.3     1  UNL1        0.0773
     11 N         141.8205  141.6551  168.7032 N.3     1  UNL1       -0.2890
     12 H         141.7061  142.4190  168.0370 H       1  UNL1        0.1239
     13 N         143.3499  144.1228  171.3663 N.am    1  UNL1       -0.3277
     14 C         143.4203  143.0150  170.3574 C.2     1  UNL1        0.2336
     15 O         144.7139  142.7183  169.6586 O.2     1  UNL1       -0.2739
     16 H         144.1527  144.6550  171.5698 H       1  UNL1        0.1450
     17 H         142.5008  144.3176  171.8251 H       1  UNL1        0.1450
     18 O         140.0402  139.6456  163.8361 O.3     1  UNL1       -0.4707
     19 C         139.6864  140.8242  162.9784 C.3     1  UNL1        0.2320
     20 C         139.4160  142.1574  163.6103 C.ar    1  UNL1        0.0212
     21 C         140.5492  143.1013  163.8841 C.ar    1  UNL1       -0.0007
     22 C         140.2788  144.4345  164.5160 C.ar    1  UNL1       -0.0002
     23 C         138.8752  144.8239  164.8742 C.ar    1  UNL1       -0.0000
     24 C         137.7420  143.8800  164.6004 C.ar    1  UNL1       -0.0002
     25 C         138.0124  142.5468  163.9685 C.ar    1  UNL1       -0.0007
@<TRIPOS>BOND
     1    13    14   am
     2    14    15    2
     3     7    14    1
     4     7     8    1
     5     8     9    1
     6     9    10    1
     7    10     1    1
     8     1     2   ar
     9     2     3   ar
    10     3     4   ar
    11     4     5   ar
    12     5    18    1
    13    18    19    1
    14    19    20    1
    15    20    21   ar
    16    21    22   ar
    17    22    23   ar
    18    23    24   ar
    19    24    25   ar
    20     5     6   ar
    21    10    11    1
    22    11     7    1
    23     6     1   ar
    24    25    20   ar
    25    13    16    1
    26    13    17    1
    27    11    12    1
@<TRIPOS>MOLECULE
*****
 25 27 0 0 0
SMALL
GASTEIGER

@<TRIPOS>ATOM
      1 C         142.7722  140.6461  166.3792 C.ar    1  UNL1       -0.0050
      2 C         143.0858  139.2289  166.0007 C.ar    1  UNL1       -0.0028
      3 C         144.0854  138.9452  164.9190 C.ar    1  UNL1        0.0028
      4 C         144.7714  140.0787  164.2157 C.ar    1  UNL1        0.0369
      5 C         144.4579  141.4958  164.5942 C.ar    1  UNL1        0.1388
      6 C         143.4583  141.7795  165.6760 C.ar    1  UNL1        0.0339
      7 C         140.6537  141.9413  169.3625 C.3     1  UNL1        0.1315
      8 C         139.8148  140.7915  168.8889 C.3     1  UNL1        0.0268
      9 C         140.5063  140.1664  167.7138 C.3     1  UNL1        0.0221
     10 C         141.7726  140.9298  167.4611 C.3     1  UNL1        0.0773
     11 N         141.8637  142.0267  168.4801 N.3     1  UNL1       -0.2890
     12 H         141.8875  142.9328  168.0121 H       1  UNL1        0.1239
     13 N         140.0552  144.2996  170.2736 N.am    1  UNL1       -0.3277
     14 C         140.3381  142.8466  170.5161 C.2     1  UNL1        0.2336
     15 O         140.3053  142.2990  171.9122 O.2     1  UNL1       -0.2739
     16 H         139.8481  144.8938  171.0308 H       1  UNL1        0.1450
     17 H         140.0768  144.6590  169.3573 H       1  UNL1        0.1450
     18 O         145.1439  142.6293  163.8909 O.3     1  UNL1       -0.4707
     19 C         144.6106  143.1328  162.5825 C.3     1  UNL1        0.2320
     20 C         143.3201  143.8963  162.5424 C.ar    1  UNL1        0.0212
     21 C         142.4047  143.7607  161.3618 C.ar    1  UNL1       -0.0007
     22 C         141.1142  144.5242  161.3218 C.ar    1  UNL1       -0.0002
     23 C         140.7391  145.4234  162.4623 C.ar    1  UNL1       -0.0000
     24 C         141.6544  145.5590  163.6429 C.ar    1  UNL1       -0.0002
     25 C         142.9450  144.7954  163.6829 C.ar    1  UNL1       -0.0007
@<TRIPOS>BOND
     1    13    14   am
     2    14    15    2
     3     7    14    1
     4     7     8    1
     5     8     9    1
     6     9    10    1
     7    10     1    1
     8     1     2   ar
     9     2     3   ar
    10     3     4   ar
    11     4     5   ar
    12     5    18    1
    13    18    19    1
    14    19    20    1
    15    20    21   ar
    16    21    22   ar
    17    22    23   ar
    18    23    24   ar
    19    24    25   ar
    20     5     6   ar
    21    10    11    1
    22    11     7    1
    23     6     1   ar
    24    25    20   ar
    25    13    16    1
    26    13    17    1
    27    11    12    1
@<TRIPOS>MOLECULE
*****
 25 27 0 0 0
SMALL
GASTEIGER

@<TRIPOS>ATOM
      1 C         141.6917  142.4966  166.0989 C.ar    1  UNL1       -0.0050
      2 C         142.8859  142.8367  165.2575 C.ar    1  UNL1       -0.0028
      3 C         142.7123  143.1505  163.8010 C.ar    1  UNL1        0.0028
      4 C         141.3445  143.1241  163.1859 C.ar    1  UNL1        0.0369
      5 C         140.1502  142.7839  164.0273 C.ar    1  UNL1        0.1388
      6 C         140.3238  142.4701  165.4838 C.ar    1  UNL1        0.0339
      7 C         141.3981  141.5580  169.8537 C.3     1  UNL1        0.1315
      8 C         142.8667  141.8418  169.7398 C.3     1  UNL1        0.0268
      9 C         143.1553  142.2279  168.3194 C.3     1  UNL1        0.0221
     10 C         141.8653  142.1828  167.5554 C.3     1  UNL1        0.0773
     11 N         140.7793  141.7688  168.5037 N.3     1  UNL1       -0.2890
     12 H         140.3496  140.9019  168.1807 H       1  UNL1        0.1239
     13 N         140.1342  139.7434  171.2174 N.am    1  UNL1       -0.3277
     14 C         140.6754  141.1374  171.0990 C.2     1  UNL1        0.2336
     15 O         140.4938  142.1106  172.2258 O.2     1  UNL1       -0.2739
     16 H         139.6599  139.4674  172.0348 H       1  UNL1        0.1450
     17 H         140.2534  139.1046  170.4779 H       1  UNL1        0.1450
     18 O         138.7824  142.7575  163.4123 O.3     1  UNL1       -0.4707
     19 C         137.7597  141.7745  163.8998 C.3     1  UNL1        0.2320
     20 C         138.1517  140.3496  164.1566 C.ar    1  UNL1        0.0212
     21 C         138.5598  139.4665  163.0147 C.ar    1  UNL1       -0.0007
     22 C         138.9518  138.0416  163.2715 C.ar    1  UNL1       -0.0002
     23 C         138.9357  137.4997  164.6702 C.ar    1  UNL1       -0.0000
     24 C         138.5276  138.3828  165.8120 C.ar    1  UNL1       -0.0002
     25 C         138.1356  139.8077  165.5552 C.ar    1  UNL1       -0.0007
@<TRIPOS>BOND
     1    13    14   am
     2    14    15    2
     3     7    14    1
     4     7     8    1
     5     8     9    1
     6     9    10    1
     7    10     1    1
     8     1     2   ar
     9     2     3   ar
    10     3     4   ar
    11     4     5   ar
    12     5    18    1
    13    18    19    1
    14    19    20    1
    15    20    21   ar
    16    21    22   ar
    17    22    23   ar
    18    23    24   ar
    19    24    25   ar
    20     5     6   ar
    21    10    11    1
    22    11     7    1
    23     6     1   ar
    24    25    20   ar
    25    13    16    1
    26    13    17    1
    27    11    12    1
