@<TRIPOS>MOLECULE
*****
 19 20 0 0 0
SMALL
GASTEIGER

@<TRIPOS>ATOM
      1 C         140.4258  141.8870  167.4231 C.ar    1  UNL1        0.0511
      2 C         139.7098  140.6041  167.1207 C.ar    1  UNL1        0.0163
      3 C         139.0439  139.8384  168.2254 C.ar    1  UNL1        0.0253
      4 C         139.0940  140.3556  169.6325 C.ar    1  UNL1        0.1365
      5 C         139.8100  141.6385  169.9349 C.ar    1  UNL1        0.1541
      6 O         139.8601  142.1558  171.3420 O.3     1  UNL1       -0.5039
      7 C         140.4759  142.4042  168.8302 C.ar    1  UNL1        0.0527
      8 H         139.4441  141.6775  172.0321 H       1  UNL1        0.2923
      9 C         142.5692  142.5183  166.0975 C.3     1  UNL1        0.1122
     10 N         141.0917  142.6527  166.3184 N.pl3   1  UNL1       -0.3040
     11 C         140.2800  143.5527  165.4346 C.3     1  UNL1        0.1122
     12 N         138.4281  139.5899  170.7371 N.2     1  UNL1       -0.1435
     13 N         137.1454  138.8579  170.4749 N.2     1  UNL1       -0.1284
     14 C         136.4795  138.0922  171.5796 C.ar    1  UNL1        0.1838
     15 C         135.2206  138.6177  172.2034 C.ar    1  UNL1        0.0406
     16 C         134.5547  137.8520  173.3080 C.ar    1  UNL1        0.0048
     17 C         135.1478  136.5608  173.7890 C.ar    1  UNL1        0.0208
     18 C         136.4066  136.0354  173.1652 C.ar    1  UNL1        0.1006
     19 N         137.0725  136.8011  172.0606 N.ar    1  UNL1       -0.2236
@<TRIPOS>BOND
     1     9    10    1
     2    10    11    1
     3    10     1    1
     4     1     2   ar
     5     2     3   ar
     6     3     4   ar
     7     4    12    1
     8    12    13    2
     9    13    14    1
    10    14    15   ar
    11    15    16   ar
    12    16    17   ar
    13    17    18   ar
    14    18    19   ar
    15     4     5   ar
    16     5     6    1
    17     5     7   ar
    18     7     1   ar
    19    19    14   ar
    20     6     8    1
@<TRIPOS>MOLECULE
*****
 19 20 0 0 0
SMALL
GASTEIGER

@<TRIPOS>ATOM
      1 C         140.4558  141.8849  167.3329 C.ar    1  UNL1        0.0511
      2 C         140.6235  142.3264  168.7565 C.ar    1  UNL1        0.0163
      3 C         139.9598  141.5605  169.8624 C.ar    1  UNL1        0.0253
      4 C         139.1283  140.3533  169.5446 C.ar    1  UNL1        0.1365
      5 C         138.9605  139.9118  168.1209 C.ar    1  UNL1        0.1541
      6 O         138.1290  138.7045  167.8030 O.3     1  UNL1       -0.5039
      7 C         139.6243  140.6777  167.0150 C.ar    1  UNL1        0.0527
      8 H         137.7144  138.2261  168.4938 H       1  UNL1        0.2923
      9 C         140.3036  143.5380  165.3343 C.3     1  UNL1        0.1122
     10 N         141.1196  142.6507  166.2270 N.pl3   1  UNL1       -0.3040
     11 C         142.5993  142.5294  166.0138 C.3     1  UNL1        0.1122
     12 N         138.4645  139.5875  170.6504 N.2     1  UNL1       -0.1435
     13 N         137.1449  138.9160  170.4106 N.2     1  UNL1       -0.1284
     14 C         136.4811  138.1501  171.5165 C.ar    1  UNL1        0.1838
     15 C         135.2250  138.6770  172.1447 C.ar    1  UNL1        0.0406
     16 C         134.5612  137.9112  173.2506 C.ar    1  UNL1        0.0048
     17 C         135.1536  136.6185  173.7282 C.ar    1  UNL1        0.0208
     18 C         136.4096  136.0917  173.1000 C.ar    1  UNL1        0.1006
     19 N         137.0734  136.8575  171.9941 N.ar    1  UNL1       -0.2236
@<TRIPOS>BOND
     1     9    10    1
     2    10    11    1
     3    10     1    1
     4     1     2   ar
     5     2     3   ar
     6     3     4   ar
     7     4    12    1
     8    12    13    2
     9    13    14    1
    10    14    15   ar
    11    15    16   ar
    12    16    17   ar
    13    17    18   ar
    14    18    19   ar
    15     4     5   ar
    16     5     6    1
    17     5     7   ar
    18     7     1   ar
    19    19    14   ar
    20     6     8    1
@<TRIPOS>MOLECULE
*****
 19 20 0 0 0
SMALL
GASTEIGER

@<TRIPOS>ATOM
      1 C         143.5774  142.8986  160.5626 C.ar    1  UNL1        0.0511
      2 C         142.3751  142.9997  161.4538 C.ar    1  UNL1        0.0163
      3 C         142.5013  142.7071  162.9196 C.ar    1  UNL1        0.0253
      4 C         143.8297  142.3133  163.4941 C.ar    1  UNL1        0.1365
      5 C         145.0320  142.2122  162.6030 C.ar    1  UNL1        0.1541
      6 O         146.3605  141.8185  163.1775 O.3     1  UNL1       -0.5039
      7 C         144.9058  142.5048  161.1372 C.ar    1  UNL1        0.0527
      8 H         146.4393  141.6357  164.0931 H       1  UNL1        0.2923
      9 C         144.4721  142.6591  158.1353 C.3     1  UNL1        0.1122
     10 N         143.4512  143.1912  159.0969 N.pl3   1  UNL1       -0.3040
     11 C         142.3043  144.0159  158.5927 C.3     1  UNL1        0.1122
     12 N         143.9559  142.0207  164.9599 N.2     1  UNL1       -0.1435
     13 N         142.7278  141.7625  165.7816 N.2     1  UNL1       -0.1284
     14 C         142.8540  141.4699  167.2473 C.ar    1  UNL1        0.1838
     15 C         142.4291  140.1355  167.7850 C.ar    1  UNL1        0.0406
     16 C         142.5552  139.8429  169.2508 C.ar    1  UNL1        0.0048
     17 C         143.1063  140.8846  170.1789 C.ar    1  UNL1        0.0208
     18 C         143.5312  142.2189  169.6411 C.ar    1  UNL1        0.1006
     19 N         143.4050  142.5115  168.1754 N.ar    1  UNL1       -0.2236
@<TRIPOS>BOND
     1     9    10    1
     2    10    11    1
     3    10     1    1
     4     1     2   ar
     5     2     3   ar
     6     3     4   ar
     7     4    12    1
     8    12    13    2
     9    13    14    1
    10    14    15   ar
    11    15    16   ar
    12    16    17   ar
    13    17    18   ar
    14    18    19   ar
    15     4     5   ar
    16     5     6    1
    17     5     7   ar
    18     7     1   ar
    19    19    14   ar
    20     6     8    1
@<TRIPOS>MOLECULE
*****
 19 20 0 0 0
SMALL
GASTEIGER

@<TRIPOS>ATOM
      1 C         139.0279  139.8045  160.4914 C.ar    1  UNL1        0.0511
      2 C         140.1800  139.3989  161.3620 C.ar    1  UNL1        0.0163
      3 C         140.1228  139.6386  162.8416 C.ar    1  UNL1        0.0253
      4 C         138.9134  140.2840  163.4506 C.ar    1  UNL1        0.1365
      5 C         137.7613  140.6896  162.5800 C.ar    1  UNL1        0.1541
      6 O         136.5518  141.3350  163.1889 O.3     1  UNL1       -0.5039
      7 C         137.8185  140.4499  161.1003 C.ar    1  UNL1        0.0527
      8 H         136.5160  141.4847  164.1132 H       1  UNL1        0.2923
      9 C         139.8684  138.4062  158.4694 C.3     1  UNL1        0.1122
     10 N         139.0852  139.5648  159.0118 N.pl3   1  UNL1       -0.3040
     11 C         138.3592  140.4837  158.0745 C.3     1  UNL1        0.1122
     12 N         138.8561  140.5237  164.9302 N.2     1  UNL1       -0.1435
     13 N         140.0755  141.0039  165.6599 N.2     1  UNL1       -0.1284
     14 C         140.0182  141.2436  167.1395 C.ar    1  UNL1        0.1838
     15 C         139.4725  140.1841  168.0504 C.ar    1  UNL1        0.0406
     16 C         139.4152  140.4238  169.5300 C.ar    1  UNL1        0.0048
     17 C         139.9037  141.7231  170.0988 C.ar    1  UNL1        0.0208
     18 C         140.4494  142.7825  169.1879 C.ar    1  UNL1        0.1006
     19 N         140.5067  142.5428  167.7083 N.ar    1  UNL1       -0.2236
@<TRIPOS>BOND
     1     9    10    1
     2    10    11    1
     3    10     1    1
     4     1     2   ar
     5     2     3   ar
     6     3     4   ar
     7     4    12    1
     8    12    13    2
     9    13    14    1
    10    14    15   ar
    11    15    16   ar
    12    16    17   ar
    13    17    18   ar
    14    18    19   ar
    15     4     5   ar
    16     5     6    1
    17     5     7   ar
    18     7     1   ar
    19    19    14   ar
    20     6     8    1
@<TRIPOS>MOLECULE
*****
 19 20 0 0 0
SMALL
GASTEIGER

@<TRIPOS>ATOM
      1 C         139.0189  138.9287  164.9425 C.ar    1  UNL1        0.0511
      2 C         138.2405  139.7057  163.9225 C.ar    1  UNL1        0.0163
      3 C         138.5170  139.5120  162.4610 C.ar    1  UNL1        0.0253
      4 C         139.5719  138.5413  162.0194 C.ar    1  UNL1        0.1365
      5 C         140.3503  137.7644  163.0394 C.ar    1  UNL1        0.1541
      6 O         141.4052  136.7936  162.5979 O.3     1  UNL1       -0.5039
      7 C         140.0737  137.9580  164.5009 C.ar    1  UNL1        0.0527
      8 H         141.5780  136.6726  161.6850 H       1  UNL1        0.2923
      9 C         137.5725  138.4350  167.0435 C.3     1  UNL1        0.1122
     10 N         138.7423  139.1224  166.4040 N.pl3   1  UNL1       -0.3040
     11 C         139.6356  140.0034  167.2260 C.3     1  UNL1        0.1122
     12 N         139.8484  138.3477  160.5579 N.2     1  UNL1       -0.1435
     13 N         141.2522  138.4526  160.0399 N.2     1  UNL1       -0.1284
     14 C         141.5287  138.2589  158.5784 C.ar    1  UNL1        0.1838
     15 C         140.3992  137.9779  157.6321 C.ar    1  UNL1        0.0406
     16 C         140.6757  137.7842  156.1706 C.ar    1  UNL1        0.0048
     17 C         142.0818  137.8716  155.6553 C.ar    1  UNL1        0.0208
     18 C         143.2112  138.1526  156.6015 C.ar    1  UNL1        0.1006
     19 N         142.9347  138.3463  158.0630 N.ar    1  UNL1       -0.2236
@<TRIPOS>BOND
     1     9    10    1
     2    10    11    1
     3    10     1    1
     4     1     2   ar
     5     2     3   ar
     6     3     4   ar
     7     4    12    1
     8    12    13    2
     9    13    14    1
    10    14    15   ar
    11    15    16   ar
    12    16    17   ar
    13    17    18   ar
    14    18    19   ar
    15     4     5   ar
    16     5     6    1
    17     5     7   ar
    18     7     1   ar
    19    19    14   ar
    20     6     8    1
@<TRIPOS>MOLECULE
*****
 19 20 0 0 0
SMALL
GASTEIGER

@<TRIPOS>ATOM
      1 C         141.6235  143.4847  164.0635 C.ar    1  UNL1        0.0511
      2 C         142.2808  142.7226  162.9512 C.ar    1  UNL1        0.0163
      3 C         142.2526  143.2636  161.5524 C.ar    1  UNL1        0.0253
      4 C         141.5671  144.5667  161.2660 C.ar    1  UNL1        0.1365
      5 C         140.9097  145.3287  162.3782 C.ar    1  UNL1        0.1541
      6 O         140.2242  146.6318  162.0918 O.3     1  UNL1       -0.5039
      7 C         140.9379  144.7877  163.7770 C.ar    1  UNL1        0.0527
      8 H         140.2065  146.9697  161.2180 H       1  UNL1        0.2923
      9 C         140.3836  142.8573  166.2587 C.3     1  UNL1        0.1122
     10 N         141.6517  142.9437  165.4622 N.pl3   1  UNL1       -0.3040
     11 C         142.9480  142.4890  166.0645 C.3     1  UNL1        0.1122
     12 N         141.5389  145.1077  159.8672 N.2     1  UNL1       -0.1435
     13 N         140.2262  145.3869  159.1974 N.2     1  UNL1       -0.1284
     14 C         140.1980  145.9279  157.7986 C.ar    1  UNL1        0.1838
     15 C         141.1411  145.3859  156.7657 C.ar    1  UNL1        0.0406
     16 C         141.1129  145.9269  155.3669 C.ar    1  UNL1        0.0048
     17 C         140.1416  147.0099  155.0011 C.ar    1  UNL1        0.0208
     18 C         139.1985  147.5518  156.0340 C.ar    1  UNL1        0.1006
     19 N         139.2267  147.0108  157.4327 N.ar    1  UNL1       -0.2236
@<TRIPOS>BOND
     1     9    10    1
     2    10    11    1
     3    10     1    1
     4     1     2   ar
     5     2     3   ar
     6     3     4   ar
     7     4    12    1
     8    12    13    2
     9    13    14    1
    10    14    15   ar
    11    15    16   ar
    12    16    17   ar
    13    17    18   ar
    14    18    19   ar
    15     4     5   ar
    16     5     6    1
    17     5     7   ar
    18     7     1   ar
    19    19    14   ar
    20     6     8    1
@<TRIPOS>MOLECULE
*****
 19 20 0 0 0
SMALL
GASTEIGER

@<TRIPOS>ATOM
      1 C         138.5436  139.2873  164.3839 C.ar    1  UNL1        0.0511
      2 C         138.5785  138.0839  163.4892 C.ar    1  UNL1        0.0163
      3 C         138.2355  138.2200  162.0353 C.ar    1  UNL1        0.0253
      4 C         137.8577  139.5596  161.4761 C.ar    1  UNL1        0.1365
      5 C         137.8228  140.7630  162.3708 C.ar    1  UNL1        0.1541
      6 O         137.4449  142.1026  161.8116 O.3     1  UNL1       -0.5039
      7 C         138.1657  140.6269  163.8247 C.ar    1  UNL1        0.0527
      8 H         137.2306  142.1877  160.9033 H       1  UNL1        0.2923
      9 C         137.9088  138.5184  166.7830 C.3     1  UNL1        0.1122
     10 N         138.8866  139.1512  165.8378 N.pl3   1  UNL1       -0.3040
     11 C         140.2073  139.6479  166.3465 C.3     1  UNL1        0.1122
     12 N         137.5147  139.6957  160.0222 N.2     1  UNL1       -0.1435
     13 N         138.2004  140.7334  159.1838 N.2     1  UNL1       -0.1284
     14 C         137.8575  140.8695  157.7299 C.ar    1  UNL1        0.1838
     15 C         138.8962  141.3394  156.7551 C.ar    1  UNL1        0.0406
     16 C         138.5533  141.4755  155.3012 C.ar    1  UNL1        0.0048
     17 C         137.1715  141.1417  154.8221 C.ar    1  UNL1        0.0208
     18 C         136.1328  140.6718  155.7969 C.ar    1  UNL1        0.1006
     19 N         136.4758  140.5357  157.2508 N.ar    1  UNL1       -0.2236
@<TRIPOS>BOND
     1     9    10    1
     2    10    11    1
     3    10     1    1
     4     1     2   ar
     5     2     3   ar
     6     3     4   ar
     7     4    12    1
     8    12    13    2
     9    13    14    1
    10    14    15   ar
    11    15    16   ar
    12    16    17   ar
    13    17    18   ar
    14    18    19   ar
    15     4     5   ar
    16     5     6    1
    17     5     7   ar
    18     7     1   ar
    19    19    14   ar
    20     6     8    1
@<TRIPOS>MOLECULE
*****
 19 20 0 0 0
SMALL
GASTEIGER

@<TRIPOS>ATOM
      1 C         140.7197  146.1159  156.4074 C.ar    1  UNL1        0.0511
      2 C         141.9912  145.3309  156.2768 C.ar    1  UNL1        0.0163
      3 C         142.5459  144.5989  157.4627 C.ar    1  UNL1        0.0253
      4 C         141.8292  144.6519  158.7793 C.ar    1  UNL1        0.1365
      5 C         140.5577  145.4369  158.9099 C.ar    1  UNL1        0.1541
      6 O         139.8409  145.4899  160.2266 O.3     1  UNL1       -0.5039
      7 C         140.0030  146.1689  157.7240 C.ar    1  UNL1        0.0527
      8 H         140.1874  145.0327  160.9674 H       1  UNL1        0.2923
      9 C         139.0469  147.8312  155.4028 C.3     1  UNL1        0.1122
     10 N         140.1650  146.8479  155.2215 N.pl3   1  UNL1       -0.3040
     11 C         140.7283  146.5966  153.8542 C.3     1  UNL1        0.1122
     12 N         142.3839  143.9199  159.9653 N.2     1  UNL1       -0.1435
     13 N         142.5608  144.6345  161.2722 N.2     1  UNL1       -0.1284
     14 C         143.1155  143.9025  162.4581 C.ar    1  UNL1        0.1838
     15 C         142.3073  143.7927  163.7170 C.ar    1  UNL1        0.0406
     16 C         142.8620  143.0607  164.9029 C.ar    1  UNL1        0.0048
     17 C         144.2250  142.4385  164.8300 C.ar    1  UNL1        0.0208
     18 C         145.0332  142.5483  163.5711 C.ar    1  UNL1        0.1006
     19 N         144.4784  143.2803  162.3852 N.ar    1  UNL1       -0.2236
@<TRIPOS>BOND
     1     9    10    1
     2    10    11    1
     3    10     1    1
     4     1     2   ar
     5     2     3   ar
     6     3     4   ar
     7     4    12    1
     8    12    13    2
     9    13    14    1
    10    14    15   ar
    11    15    16   ar
    12    16    17   ar
    13    17    18   ar
    14    18    19   ar
    15     4     5   ar
    16     5     6    1
    17     5     7   ar
    18     7     1   ar
    19    19    14   ar
    20     6     8    1
@<TRIPOS>MOLECULE
*****
 19 20 0 0 0
SMALL
GASTEIGER

@<TRIPOS>ATOM
      1 C         144.2378  141.1457  161.4585 C.ar    1  UNL1        0.0511
      2 C         143.7140  141.6848  160.1604 C.ar    1  UNL1        0.0163
      3 C         143.1164  140.7532  159.1480 C.ar    1  UNL1        0.0253
      4 C         143.0426  139.2826  159.4336 C.ar    1  UNL1        0.1365
      5 C         143.5664  138.7435  160.7316 C.ar    1  UNL1        0.1541
      6 O         143.4926  137.2727  161.0173 O.3     1  UNL1       -0.5039
      7 C         144.1640  139.6750  161.7441 C.ar    1  UNL1        0.0527
      8 H         143.1193  136.6908  160.3849 H       1  UNL1        0.2923
      9 C         145.7738  141.5484  163.5148 C.3     1  UNL1        0.1122
     10 N         144.8354  142.0773  162.4709 N.pl3   1  UNL1       -0.3040
     11 C         144.4947  143.5377  162.4395 C.3     1  UNL1        0.1122
     12 N         142.4450  138.3510  158.4211 N.2     1  UNL1       -0.1435
     13 N         143.1674  137.0925  158.0415 N.2     1  UNL1       -0.1284
     14 C         142.5698  136.1609  157.0291 C.ar    1  UNL1        0.1838
     15 C         143.1370  134.7838  156.8502 C.ar    1  UNL1        0.0406
     16 C         142.5394  133.8523  155.8377 C.ar    1  UNL1        0.0048
     17 C         141.3746  134.2978  155.0042 C.ar    1  UNL1        0.0208
     18 C         140.8075  135.6749  155.1831 C.ar    1  UNL1        0.1006
     19 N         141.4051  136.6064  156.1955 N.ar    1  UNL1       -0.2236
@<TRIPOS>BOND
     1     9    10    1
     2    10    11    1
     3    10     1    1
     4     1     2   ar
     5     2     3   ar
     6     3     4   ar
     7     4    12    1
     8    12    13    2
     9    13    14    1
    10    14    15   ar
    11    15    16   ar
    12    16    17   ar
    13    17    18   ar
    14    18    19   ar
    15     4     5   ar
    16     5     6    1
    17     5     7   ar
    18     7     1   ar
    19    19    14   ar
    20     6     8    1
