@<TRIPOS>MOLECULE
*****
 43 47 0 0 0
SMALL
GASTEIGER

@<TRIPOS>ATOM
      1 C         144.4766  140.0628  163.1254 C.ar    1  UNL1        0.0287
      2 C         144.1676  139.4152  161.8082 C.ar    1  UNL1        0.0145
      3 C         143.0906  138.3751  161.7182 C.ar    1  UNL1        0.0915
      4 CL        142.7817  137.7275  160.4008 Cl      1  UNL1       -0.0791
      5 C         142.3224  137.9827  162.9452 C.ar    1  UNL1        0.1525
      6 C         142.6312  138.6303  164.2625 C.ar    1  UNL1        0.0744
      7 C         143.7084  139.6704  164.3526 C.ar    1  UNL1        0.1394
      8 C         145.5537  141.1029  163.2155 C.3     0  ACE0        0.0990
      9 N         145.6414  142.1835  162.1790 N.3     1  UNL1       -0.2883
     10 H         146.4433  142.7635  162.4255 H       1  UNL1        0.1239
     11 CA        144.4838  143.1133  161.9650 C.3     1  UNL1        0.1209
     12 O         144.0391  142.0398  159.6413 O.co2   1  UNL1       -0.5477
     13 C         143.7379  143.0952  160.6638 C.2     1  UNL1        0.0671
     14 OXT       142.6908  144.1325  160.3851 O.co2   1  UNL1       -0.5477
     15 CB        144.0723  144.0612  163.0523 C.3     1  UNL1        0.1584
     16 O         143.8671  145.5144  162.7425 O.3     1  UNL1       -0.3802
     17 H         144.7143  145.9141  162.4907 H       1  UNL1        0.2105
     18 O         141.2452  136.9426  162.8551 O.3     1  UNL1       -0.4697
     19 C         139.8035  137.3560  162.8318 C.3     1  UNL1        0.2325
     20 C         139.2278  138.1345  163.9775 C.ar    1  UNL1        0.0274
     21 C         138.6679  137.4136  165.1678 C.ar    1  UNL1       -0.0002
     22 C         138.0923  138.1922  166.3135 C.ar    1  UNL1       -0.0002
     23 C         138.0765  139.6914  166.2689 C.ar    1  UNL1        0.0005
     24 C         138.6364  140.4122  165.0785 C.ar    1  UNL1        0.0060
     25 C         139.2121  139.6338  163.9328 C.ar    1  UNL1        0.0340
     26 BR        139.7720  140.3545  162.7425 Br      1  UNL1       -0.0492
     27 C         138.6207  141.9114  165.0339 C.ar    1  UNL1        0.0005
     28 C         139.6685  142.6947  165.7678 C.ar    1  UNL1        0.0000
     29 C         139.6527  144.1939  165.7232 C.ar    1  UNL1        0.0000
     30 C         138.5892  144.9099  164.9446 C.ar    1  UNL1        0.0000
     31 C         137.5414  144.1267  164.2107 C.ar    1  UNL1        0.0000
     32 C         137.5571  142.6275  164.2553 C.ar    1  UNL1        0.0000
     33 O         144.0173  140.3181  165.6698 O.3     1  UNL1       -0.4708
     34 C         143.1383  141.4168  166.1898 C.3     1  UNL1        0.2320
     35 C         142.3703  141.2234  167.4637 C.ar    1  UNL1        0.0229
     36 C         141.4646  140.0382  167.6208 C.ar    1  UNL1        0.0011
     37 C         140.6966  139.8448  168.8948 C.ar    1  UNL1        0.0239
     38 C         140.8344  140.8367  170.0115 C.ar    1  UNL1        0.1431
     39 N         140.2084  140.9089  171.3727 N.ar    1  UNL1       -0.0483
     40 O         140.7274  142.1388  172.0568 O.2     1  UNL1       -0.2415
     41 N         141.6740  142.8267  171.1184 N.ar    1  UNL1       -0.0483
     42 C         141.7401  142.0220  169.8543 C.ar    1  UNL1        0.1430
     43 C         142.5081  142.2153  168.5804 C.ar    1  UNL1        0.0234
@<TRIPOS>UNITY_ATOM_ATTR
12 1
charge -1
@<TRIPOS>BOND
     1    12    13   ar
     2    13    14   ar
     3    13    11    1
     4    11    15    1
     5    15    16    1
     6    11     9    1
     7     9     8    1
     8     8     1    1
     9     1     2   ar
    10     2     3   ar
    11     3     4    1
    12     3     5   ar
    13     5    18    1
    14    18    19    1
    15    19    20    1
    16    20    21   ar
    17    21    22   ar
    18    22    23   ar
    19    23    24   ar
    20    24    27    1
    21    27    28   ar
    22    28    29   ar
    23    29    30   ar
    24    30    31   ar
    25    31    32   ar
    26    24    25   ar
    27    25    26    1
    28     5     6   ar
    29     6     7   ar
    30     7    33    1
    31    33    34    1
    32    34    35    1
    33    35    36   ar
    34    36    37   ar
    35    37    38   ar
    36    38    39   ar
    37    39    40   ar
    38    40    41   ar
    39    41    42   ar
    40    42    43   ar
    41     7     1   ar
    42    43    35   ar
    43    25    20   ar
    44    42    38   ar
    45    32    27   ar
    46    16    17    1
    47     9    10    1
@<TRIPOS>MOLECULE
*****
 43 47 0 0 0
SMALL
GASTEIGER

@<TRIPOS>ATOM
      1 C         144.5224  139.8696  163.5560 C.ar    1  UNL1        0.0287
      2 C         144.3746  139.6784  162.0756 C.ar    1  UNL1        0.0145
      3 C         143.2650  138.8249  161.5367 C.ar    1  UNL1        0.0915
      4 CL        143.1173  138.6338  160.0562 Cl      1  UNL1       -0.0791
      5 C         142.3034  138.1626  162.4781 C.ar    1  UNL1        0.1525
      6 C         142.4511  138.3536  163.9585 C.ar    1  UNL1        0.0744
      7 C         143.5607  139.2072  164.4975 C.ar    1  UNL1        0.1394
      8 C         145.6319  140.7231  164.0949 C.3     0  ACE0        0.0990
      9 N         145.9143  142.0619  163.4806 N.3     1  UNL1       -0.2883
     10 H         146.7316  142.4394  163.9600 H       1  UNL1        0.1239
     11 CA        144.8653  143.1340  163.5034 C.3     1  UNL1        0.1209
     12 O         142.7967  143.5681  165.0141 O.co2   1  UNL1       -0.5477
     13 C         144.2826  143.5854  164.8098 C.2     1  UNL1        0.0671
     14 OXT       145.1859  144.0539  165.9119 O.co2   1  UNL1       -0.5477
     15 CB        144.3991  143.7546  162.2199 C.3     1  UNL1        0.1584
     16 O         143.4721  144.9335  162.2501 O.3     1  UNL1       -0.3802
     17 H         142.6170  144.6630  162.6197 H       1  UNL1        0.2105
     18 O         141.1938  137.3090  161.9391 O.3     1  UNL1       -0.4697
     19 C         139.7691  137.7592  162.0718 C.3     1  UNL1        0.2325
     20 C         139.2816  138.3329  163.3692 C.ar    1  UNL1        0.0274
     21 C         138.8470  137.4197  164.4769 C.ar    1  UNL1       -0.0002
     22 C         138.3595  137.9935  165.7743 C.ar    1  UNL1       -0.0002
     23 C         138.3066  139.4806  165.9639 C.ar    1  UNL1        0.0005
     24 C         138.7412  140.3938  164.8561 C.ar    1  UNL1        0.0060
     25 C         139.2287  139.8200  163.5587 C.ar    1  UNL1        0.0340
     26 BR        139.6633  140.7332  162.4510 Br      1  UNL1       -0.0492
     27 C         138.6883  141.8808  165.0457 C.ar    1  UNL1        0.0005
     28 C         137.6417  142.6903  164.3389 C.ar    1  UNL1        0.0000
     29 C         137.5888  144.1772  164.5286 C.ar    1  UNL1        0.0000
     30 C         138.5825  144.8548  165.4249 C.ar    1  UNL1        0.0000
     31 C         139.6291  144.0454  166.1316 C.ar    1  UNL1        0.0000
     32 C         139.6820  142.5584  165.9420 C.ar    1  UNL1        0.0000
     33 O         143.7085  139.3983  165.9779 O.3     1  UNL1       -0.4708
     34 C         142.5369  139.1647  166.8849 C.3     1  UNL1        0.2320
     35 C         142.0481  140.2667  167.7776 C.ar    1  UNL1        0.0229
     36 C         142.8055  141.5589  167.8575 C.ar    1  UNL1        0.0011
     37 C         142.3167  142.6609  168.7502 C.ar    1  UNL1        0.0239
     38 C         141.0704  142.4705  169.5629 C.ar    1  UNL1        0.1431
     39 N         140.3518  143.3704  170.5240 N.ar    1  UNL1       -0.0483
     40 O         139.1502  142.6344  171.0381 O.2     1  UNL1       -0.2415
     41 N         139.1262  141.2795  170.3947 N.ar    1  UNL1       -0.0483
     42 C         140.3130  141.1783  169.4830 C.ar    1  UNL1        0.1430
     43 C         140.8018  140.0764  168.5903 C.ar    1  UNL1        0.0234
@<TRIPOS>UNITY_ATOM_ATTR
12 1
charge -1
@<TRIPOS>BOND
     1    12    13   ar
     2    13    14   ar
     3    13    11    1
     4    11    15    1
     5    15    16    1
     6    11     9    1
     7     9     8    1
     8     8     1    1
     9     1     2   ar
    10     2     3   ar
    11     3     4    1
    12     3     5   ar
    13     5    18    1
    14    18    19    1
    15    19    20    1
    16    20    21   ar
    17    21    22   ar
    18    22    23   ar
    19    23    24   ar
    20    24    27    1
    21    27    28   ar
    22    28    29   ar
    23    29    30   ar
    24    30    31   ar
    25    31    32   ar
    26    24    25   ar
    27    25    26    1
    28     5     6   ar
    29     6     7   ar
    30     7    33    1
    31    33    34    1
    32    34    35    1
    33    35    36   ar
    34    36    37   ar
    35    37    38   ar
    36    38    39   ar
    37    39    40   ar
    38    40    41   ar
    39    41    42   ar
    40    42    43   ar
    41     7     1   ar
    42    43    35   ar
    43    25    20   ar
    44    42    38   ar
    45    32    27   ar
    46    16    17    1
    47     9    10    1
@<TRIPOS>MOLECULE
*****
 43 47 0 0 0
SMALL
GASTEIGER

@<TRIPOS>ATOM
      1 C         142.9290  143.8465  162.9578 C.ar    1  UNL1        0.0287
      2 C         143.3782  143.5660  161.5545 C.ar    1  UNL1        0.0145
      3 C         143.8806  142.2014  161.1864 C.ar    1  UNL1        0.0915
      4 CL        144.3299  141.9209  159.7830 Cl      1  UNL1       -0.0791
      5 C         143.9337  141.1173  162.2217 C.ar    1  UNL1        0.1525
      6 C         143.4845  141.3977  163.6251 C.ar    1  UNL1        0.0744
      7 C         142.9821  142.7624  163.9932 C.ar    1  UNL1        0.1394
      8 C         142.4266  145.2111  163.3259 C.3     0  ACE0        0.0990
      9 N         141.0055  145.3925  163.7700 N.3     1  UNL1       -0.2883
     10 H         140.8538  144.7451  164.5435 H       1  UNL1        0.1239
     11 CA        139.8828  145.1773  162.7987 C.3     1  UNL1        0.1209
     12 O         138.4207  144.0955  164.6540 O.co2   1  UNL1       -0.5477
     13 C         138.6858  144.3687  163.2031 C.2     1  UNL1        0.0671
     14 OXT       137.7541  143.8333  162.1565 O.co2   1  UNL1       -0.5477
     15 CB        139.9570  145.7708  161.4231 C.3     1  UNL1        0.1584
     16 O         139.1458  146.9865  161.0860 O.3     1  UNL1       -0.3802
     17 H         138.2021  146.7641  161.1160 H       1  UNL1        0.2105
     18 O         144.4361  139.7526  161.8536 O.3     1  UNL1       -0.4697
     19 C         143.4639  138.6612  161.5165 C.3     1  UNL1        0.2325
     20 C         141.9888  138.9115  161.6232 C.ar    1  UNL1        0.0274
     21 C         141.2181  139.3757  160.4230 C.ar    1  UNL1       -0.0002
     22 C         139.7429  139.6259  160.5298 C.ar    1  UNL1       -0.0002
     23 C         139.0385  139.4120  161.8368 C.ar    1  UNL1        0.0005
     24 C         139.8094  138.9479  163.0370 C.ar    1  UNL1        0.0060
     25 C         141.2845  138.6976  162.9303 C.ar    1  UNL1        0.0340
     26 BR        142.0552  138.2335  164.1304 Br      1  UNL1       -0.0492
     27 C         139.1050  138.7340  164.3439 C.ar    1  UNL1        0.0005
     28 C         138.7551  139.9089  165.2084 C.ar    1  UNL1        0.0000
     29 C         138.0508  139.6949  166.5153 C.ar    1  UNL1        0.0000
     30 C         137.6962  138.3062  166.9578 C.ar    1  UNL1        0.0000
     31 C         138.0461  137.1314  166.0933 C.ar    1  UNL1        0.0000
     32 C         138.7505  137.3453  164.7864 C.ar    1  UNL1        0.0000
     33 O         142.5328  143.0429  165.3965 O.3     1  UNL1       -0.4708
     34 C         141.2524  142.4509  165.9066 C.3     1  UNL1        0.2320
     35 C         141.1558  141.9855  167.3294 C.ar    1  UNL1        0.0229
     36 C         141.5013  140.5687  167.6801 C.ar    1  UNL1        0.0011
     37 C         141.4047  140.1033  169.1029 C.ar    1  UNL1        0.0239
     38 C         140.9626  141.0549  170.1748 C.ar    1  UNL1        0.1431
     39 N         140.7735  140.8840  171.6530 N.ar    1  UNL1       -0.0483
     40 O         140.3112  142.1953  172.2157 O.2     1  UNL1       -0.2415
     41 N         140.2145  143.1766  171.0854 N.ar    1  UNL1       -0.0483
     42 C         140.6171  142.4718  169.8240 C.ar    1  UNL1        0.1430
     43 C         140.7137  142.9371  168.4013 C.ar    1  UNL1        0.0234
@<TRIPOS>UNITY_ATOM_ATTR
12 1
charge -1
@<TRIPOS>BOND
     1    12    13   ar
     2    13    14   ar
     3    13    11    1
     4    11    15    1
     5    15    16    1
     6    11     9    1
     7     9     8    1
     8     8     1    1
     9     1     2   ar
    10     2     3   ar
    11     3     4    1
    12     3     5   ar
    13     5    18    1
    14    18    19    1
    15    19    20    1
    16    20    21   ar
    17    21    22   ar
    18    22    23   ar
    19    23    24   ar
    20    24    27    1
    21    27    28   ar
    22    28    29   ar
    23    29    30   ar
    24    30    31   ar
    25    31    32   ar
    26    24    25   ar
    27    25    26    1
    28     5     6   ar
    29     6     7   ar
    30     7    33    1
    31    33    34    1
    32    34    35    1
    33    35    36   ar
    34    36    37   ar
    35    37    38   ar
    36    38    39   ar
    37    39    40   ar
    38    40    41   ar
    39    41    42   ar
    40    42    43   ar
    41     7     1   ar
    42    43    35   ar
    43    25    20   ar
    44    42    38   ar
    45    32    27   ar
    46    16    17    1
    47     9    10    1
@<TRIPOS>MOLECULE
*****
 43 47 0 0 0
SMALL
GASTEIGER

@<TRIPOS>ATOM
      1 C         140.9426  142.6079  160.9726 C.ar    1  UNL1        0.0287
      2 C         142.0620  143.5425  161.3236 C.ar    1  UNL1        0.0145
      3 C         143.3885  142.9939  161.7590 C.ar    1  UNL1        0.0915
      4 CL        144.5080  143.9286  162.1100 Cl      1  UNL1       -0.0791
      5 C         143.5954  141.5107  161.8432 C.ar    1  UNL1        0.1525
      6 C         142.4760  140.5760  161.4922 C.ar    1  UNL1        0.0744
      7 C         141.1495  141.1247  161.0568 C.ar    1  UNL1        0.1394
      8 C         139.6161  143.1566  160.5373 C.3     0  ACE0        0.0990
      9 N         138.5735  143.4978  161.5601 N.3     1  UNL1       -0.2883
     10 H         137.7329  143.7627  161.0466 H       1  UNL1        0.1239
     11 CA        138.8313  144.5860  162.5598 C.3     1  UNL1        0.1209
     12 O         137.3296  143.5380  164.4028 O.co2   1  UNL1       -0.5477
     13 C         138.5203  144.3613  164.0099 C.2     1  UNL1        0.0671
     14 OXT       139.4001  144.9600  165.0671 O.co2   1  UNL1       -0.5477
     15 CB        139.4000  145.8989  162.1094 C.3     1  UNL1        0.1584
     16 O         140.6620  146.4217  162.7290 O.3     1  UNL1       -0.3802
     17 H         140.5028  146.6259  163.6638 H       1  UNL1        0.2105
     18 O         144.9220  140.9620  162.2786 O.3     1  UNL1       -0.4697
     19 C         145.2431  140.8470  163.7393 C.3     1  UNL1        0.2325
     20 C         144.1974  140.3670  164.7016 C.ar    1  UNL1        0.0274
     21 C         143.7292  138.9428  164.6514 C.ar    1  UNL1       -0.0002
     22 C         142.6834  138.4628  165.6138 C.ar    1  UNL1       -0.0002
     23 C         142.1060  139.4070  166.6263 C.ar    1  UNL1        0.0005
     24 C         142.5743  140.8311  166.6764 C.ar    1  UNL1        0.0060
     25 C         143.6200  141.3112  165.7141 C.ar    1  UNL1        0.0340
     26 BR        144.0882  142.7353  165.7643 Br      1  UNL1       -0.0492
     27 C         141.9968  141.7753  167.6889 C.ar    1  UNL1        0.0005
     28 C         140.6831  142.4487  167.4229 C.ar    1  UNL1        0.0000
     29 C         140.1057  143.3928  168.4354 C.ar    1  UNL1        0.0000
     30 C         140.8419  143.6635  169.7139 C.ar    1  UNL1        0.0000
     31 C         142.1556  142.9901  169.9800 C.ar    1  UNL1        0.0000
     32 C         142.7331  142.0460  168.9675 C.ar    1  UNL1        0.0000
     33 O         140.0300  140.1901  160.7058 O.3     1  UNL1       -0.4708
     34 C         139.8098  138.9463  161.5147 C.3     1  UNL1        0.2320
     35 C         139.3196  139.0483  162.9287 C.ar    1  UNL1        0.0229
     36 C         139.2161  140.3898  163.5917 C.ar    1  UNL1        0.0011
     37 C         138.7258  140.4918  165.0057 C.ar    1  UNL1        0.0239
     38 C         138.3391  139.2522  165.7566 C.ar    1  UNL1        0.1431
     39 N         137.8255  139.0422  167.1502 N.ar    1  UNL1       -0.0483
     40 O         137.6116  137.5708  167.3485 O.2     1  UNL1       -0.2415
     41 N         137.9929  136.8715  166.0774 N.ar    1  UNL1       -0.0483
     42 C         138.4425  137.9107  165.0936 C.ar    1  UNL1        0.1430
     43 C         138.9328  137.8087  163.6796 C.ar    1  UNL1        0.0234
@<TRIPOS>UNITY_ATOM_ATTR
12 1
charge -1
@<TRIPOS>BOND
     1    12    13   ar
     2    13    14   ar
     3    13    11    1
     4    11    15    1
     5    15    16    1
     6    11     9    1
     7     9     8    1
     8     8     1    1
     9     1     2   ar
    10     2     3   ar
    11     3     4    1
    12     3     5   ar
    13     5    18    1
    14    18    19    1
    15    19    20    1
    16    20    21   ar
    17    21    22   ar
    18    22    23   ar
    19    23    24   ar
    20    24    27    1
    21    27    28   ar
    22    28    29   ar
    23    29    30   ar
    24    30    31   ar
    25    31    32   ar
    26    24    25   ar
    27    25    26    1
    28     5     6   ar
    29     6     7   ar
    30     7    33    1
    31    33    34    1
    32    34    35    1
    33    35    36   ar
    34    36    37   ar
    35    37    38   ar
    36    38    39   ar
    37    39    40   ar
    38    40    41   ar
    39    41    42   ar
    40    42    43   ar
    41     7     1   ar
    42    43    35   ar
    43    25    20   ar
    44    42    38   ar
    45    32    27   ar
    46    16    17    1
    47     9    10    1
@<TRIPOS>MOLECULE
*****
 43 47 0 0 0
SMALL
GASTEIGER

@<TRIPOS>ATOM
      1 C         139.5793  138.2757  163.3121 C.ar    1  UNL1        0.0287
      2 C         138.9707  138.6078  161.9820 C.ar    1  UNL1        0.0145
      3 C         138.0817  139.8079  161.8427 C.ar    1  UNL1        0.0915
      4 CL        137.4730  140.1400  160.5124 Cl      1  UNL1       -0.0791
      5 C         137.8013  140.6759  163.0334 C.ar    1  UNL1        0.1525
      6 C         138.4098  140.3439  164.3636 C.ar    1  UNL1        0.0744
      7 C         139.2989  139.1437  164.5029 C.ar    1  UNL1        0.1394
      8 C         140.4683  137.0756  163.4515 C.3     0  ACE0        0.0990
      9 N         141.5918  136.8579  162.4819 N.3     1  UNL1       -0.2883
     10 H         142.1331  136.0671  162.8312 H       1  UNL1        0.1239
     11 CA        142.5682  137.9625  162.2049 C.3     1  UNL1        0.1209
     12 O         141.7511  138.3832  159.7748 O.co2   1  UNL1       -0.5477
     13 C         142.8544  138.3735  160.7910 C.2     1  UNL1        0.0671
     14 OXT       144.2440  138.7747  160.3933 O.co2   1  UNL1       -0.5477
     15 CB        143.2583  138.6561  163.3419 C.3     1  UNL1        0.1584
     16 O         144.6285  139.2344  163.1469 O.3     1  UNL1       -0.3802
     17 H         145.2619  138.5178  162.9855 H       1  UNL1        0.2105
     18 O         136.9122  141.8760  162.8940 O.3     1  UNL1       -0.4697
     19 C         137.5007  143.2072  162.5313 C.3     1  UNL1        0.2325
     20 C         138.9234  143.2963  162.0647 C.ar    1  UNL1        0.0274
     21 C         139.2390  143.2162  160.6005 C.ar    1  UNL1       -0.0002
     22 C         140.6619  143.3053  160.1340 C.ar    1  UNL1       -0.0002
     23 C         141.7691  143.4743  161.1317 C.ar    1  UNL1        0.0005
     24 C         141.4535  143.5544  162.5959 C.ar    1  UNL1        0.0060
     25 C         140.0307  143.4653  163.0625 C.ar    1  UNL1        0.0340
     26 BR        139.7152  143.5454  164.5267 Br      1  UNL1       -0.0492
     27 C         142.5608  143.7234  163.5936 C.ar    1  UNL1        0.0005
     28 C         143.1177  142.5265  164.3060 C.ar    1  UNL1        0.0000
     29 C         144.2249  142.6957  165.3037 C.ar    1  UNL1        0.0000
     30 C         144.7753  144.0616  165.5890 C.ar    1  UNL1        0.0000
     31 C         144.2184  145.2584  164.8766 C.ar    1  UNL1        0.0000
     32 C         143.1112  145.0893  163.8789 C.ar    1  UNL1        0.0000
     33 O         139.9075  138.8116  165.8331 O.3     1  UNL1       -0.4708
     34 C         141.0704  139.6084  166.3456 C.3     1  UNL1        0.2320
     35 C         140.8785  140.5702  167.4806 C.ar    1  UNL1        0.0229
     36 C         140.7393  142.0379  167.2046 C.ar    1  UNL1        0.0011
     37 C         140.5474  142.9997  168.3396 C.ar    1  UNL1        0.0239
     38 C         140.4946  142.4937  169.7506 C.ar    1  UNL1        0.1431
     39 N         140.3173  143.1975  171.0633 N.ar    1  UNL1       -0.0483
     40 O         140.3469  142.1647  172.1507 O.2     1  UNL1       -0.2415
     41 N         140.5425  140.8225  171.5100 N.ar    1  UNL1       -0.0483
     42 C         140.6338  141.0259  170.0267 C.ar    1  UNL1        0.1430
     43 C         140.8258  140.0641  168.8917 C.ar    1  UNL1        0.0234
@<TRIPOS>UNITY_ATOM_ATTR
12 1
charge -1
@<TRIPOS>BOND
     1    12    13   ar
     2    13    14   ar
     3    13    11    1
     4    11    15    1
     5    15    16    1
     6    11     9    1
     7     9     8    1
     8     8     1    1
     9     1     2   ar
    10     2     3   ar
    11     3     4    1
    12     3     5   ar
    13     5    18    1
    14    18    19    1
    15    19    20    1
    16    20    21   ar
    17    21    22   ar
    18    22    23   ar
    19    23    24   ar
    20    24    27    1
    21    27    28   ar
    22    28    29   ar
    23    29    30   ar
    24    30    31   ar
    25    31    32   ar
    26    24    25   ar
    27    25    26    1
    28     5     6   ar
    29     6     7   ar
    30     7    33    1
    31    33    34    1
    32    34    35    1
    33    35    36   ar
    34    36    37   ar
    35    37    38   ar
    36    38    39   ar
    37    39    40   ar
    38    40    41   ar
    39    41    42   ar
    40    42    43   ar
    41     7     1   ar
    42    43    35   ar
    43    25    20   ar
    44    42    38   ar
    45    32    27   ar
    46    16    17    1
    47     9    10    1
@<TRIPOS>MOLECULE
*****
 43 47 0 0 0
SMALL
GASTEIGER

@<TRIPOS>ATOM
      1 C         140.3161  137.8721  163.2092 C.ar    1  UNL1        0.0287
      2 C         141.2833  137.5949  162.0967 C.ar    1  UNL1        0.0145
      3 C         142.7068  138.0544  162.2086 C.ar    1  UNL1        0.0915
      4 CL        143.6740  137.7772  161.0961 Cl      1  UNL1       -0.0791
      5 C         143.1630  138.7910  163.4330 C.ar    1  UNL1        0.1525
      6 C         142.1959  139.0682  164.5455 C.ar    1  UNL1        0.0744
      7 C         140.7723  138.6087  164.4336 C.ar    1  UNL1        0.1394
      8 C         138.8926  137.4126  163.0973 C.3     0  ACE0        0.0990
      9 N         138.0244  137.9244  161.9864 N.3     1  UNL1       -0.2883
     10 H         138.2845  137.4066  161.1470 H       1  UNL1        0.1239
     11 CA        138.0513  139.3796  161.6232 C.3     1  UNL1        0.1209
     12 O         137.4414  139.9726  159.1683 O.co2   1  UNL1       -0.5477
     13 C         138.4705  139.8013  160.2461 C.2     1  UNL1        0.0671
     14 OXT       139.9189  140.0517  159.9468 O.co2   1  UNL1       -0.5477
     15 CB        137.6588  140.4131  162.6371 C.3     1  UNL1        0.1584
     16 O         137.2844  141.7958  162.1924 O.3     1  UNL1       -0.3802
     17 H         138.0601  142.2327  161.8072 H       1  UNL1        0.2105
     18 O         144.5866  139.2505  163.5449 O.3     1  UNL1       -0.4697
     19 C         144.9885  140.5876  162.9964 C.3     1  UNL1        0.2325
     20 C         144.4722  141.8446  163.6314 C.ar    1  UNL1        0.0274
     21 C         145.2355  142.4873  164.7514 C.ar    1  UNL1       -0.0002
     22 C         144.7191  143.7444  165.3863 C.ar    1  UNL1       -0.0002
     23 C         143.4395  144.3588  164.9013 C.ar    1  UNL1        0.0005
     24 C         142.6763  143.7160  163.7813 C.ar    1  UNL1        0.0060
     25 C         143.1926  142.4590  163.1463 C.ar    1  UNL1        0.0340
     26 BR        142.4293  141.8163  162.0264 Br      1  UNL1       -0.0492
     27 C         141.3967  144.3304  163.2964 C.ar    1  UNL1        0.0005
     28 C         141.3960  145.1895  162.0666 C.ar    1  UNL1        0.0000
     29 C         140.1165  145.8038  161.5817 C.ar    1  UNL1        0.0000
     30 C         138.8376  145.5592  162.3264 C.ar    1  UNL1        0.0000
     31 C         138.8382  144.7002  163.5561 C.ar    1  UNL1        0.0000
     32 C         140.1178  144.0858  164.0410 C.ar    1  UNL1        0.0000
     33 O         139.8051  138.8859  165.5461 O.3     1  UNL1       -0.4708
     34 C         139.4299  140.2996  165.8789 C.3     1  UNL1        0.2320
     35 C         139.8458  140.8969  167.1905 C.ar    1  UNL1        0.0229
     36 C         140.4652  142.2624  167.2299 C.ar    1  UNL1        0.0011
     37 C         140.8811  142.8598  168.5415 C.ar    1  UNL1        0.0239
     38 C         140.6776  142.0915  169.8137 C.ar    1  UNL1        0.1431
     39 N         140.9856  142.4197  171.2445 N.ar    1  UNL1       -0.0483
     40 O         140.5566  141.2569  172.0894 O.2     1  UNL1       -0.2415
     41 N         139.9834  140.2101  171.1807 N.ar    1  UNL1       -0.0483
     42 C         140.0582  140.7260  169.7742 C.ar    1  UNL1        0.1430
     43 C         139.6423  140.1287  168.4626 C.ar    1  UNL1        0.0234
@<TRIPOS>UNITY_ATOM_ATTR
12 1
charge -1
@<TRIPOS>BOND
     1    12    13   ar
     2    13    14   ar
     3    13    11    1
     4    11    15    1
     5    15    16    1
     6    11     9    1
     7     9     8    1
     8     8     1    1
     9     1     2   ar
    10     2     3   ar
    11     3     4    1
    12     3     5   ar
    13     5    18    1
    14    18    19    1
    15    19    20    1
    16    20    21   ar
    17    21    22   ar
    18    22    23   ar
    19    23    24   ar
    20    24    27    1
    21    27    28   ar
    22    28    29   ar
    23    29    30   ar
    24    30    31   ar
    25    31    32   ar
    26    24    25   ar
    27    25    26    1
    28     5     6   ar
    29     6     7   ar
    30     7    33    1
    31    33    34    1
    32    34    35    1
    33    35    36   ar
    34    36    37   ar
    35    37    38   ar
    36    38    39   ar
    37    39    40   ar
    38    40    41   ar
    39    41    42   ar
    40    42    43   ar
    41     7     1   ar
    42    43    35   ar
    43    25    20   ar
    44    42    38   ar
    45    32    27   ar
    46    16    17    1
    47     9    10    1
@<TRIPOS>MOLECULE
*****
 43 47 0 0 0
SMALL
GASTEIGER

@<TRIPOS>ATOM
      1 C         140.0062  140.4509  159.6468 C.ar    1  UNL1        0.0287
      2 C         138.7752  139.8230  160.2301 C.ar    1  UNL1        0.0145
      3 C         138.9008  138.6802  161.1935 C.ar    1  UNL1        0.0915
      4 CL        137.6696  138.0522  161.7768 Cl      1  UNL1       -0.0791
      5 C         140.2573  138.1654  161.5737 C.ar    1  UNL1        0.1525
      6 C         141.4884  138.7932  160.9906 C.ar    1  UNL1        0.0744
      7 C         141.3629  139.9361  160.0271 C.ar    1  UNL1        0.1394
      8 C         139.8807  141.5937  158.6834 C.3     0  ACE0        0.0990
      9 N         139.2072  142.8641  159.1104 N.3     1  UNL1       -0.2883
     10 H         139.2019  143.4817  158.2987 H       1  UNL1        0.1239
     11 CA        139.7615  143.6586  160.2556 C.3     1  UNL1        0.1209
     12 O         137.9606  143.9594  162.1040 O.co2   1  UNL1       -0.5477
     13 C         139.2771  143.4004  161.6516 C.2     1  UNL1        0.0671
     14 OXT       140.1091  142.5834  162.5950 O.co2   1  UNL1       -0.5477
     15 CB        140.8002  144.7114  160.0048 C.3     1  UNL1        0.1584
     16 O         141.2556  145.5977  161.1260 O.3     1  UNL1       -0.3802
     17 H         140.5196  146.1609  161.4123 H       1  UNL1        0.2105
     18 O         140.3829  137.0225  162.5373 O.3     1  UNL1       -0.4697
     19 C         141.1156  137.2106  163.8325 C.3     1  UNL1        0.2325
     20 C         140.5322  138.0825  164.9046 C.ar    1  UNL1        0.0274
     21 C         139.0444  138.2343  165.0207 C.ar    1  UNL1       -0.0002
     22 C         138.4610  139.1063  166.0929 C.ar    1  UNL1       -0.0002
     23 C         139.3653  139.8264  167.0488 C.ar    1  UNL1        0.0005
     24 C         140.8531  139.6745  166.9325 C.ar    1  UNL1        0.0060
     25 C         141.4365  138.8026  165.8605 C.ar    1  UNL1        0.0340
     26 BR        142.9242  138.6507  165.7443 Br      1  UNL1       -0.0492
     27 C         141.7573  140.3945  167.8885 C.ar    1  UNL1        0.0005
     28 C         142.3580  141.7140  167.5032 C.ar    1  UNL1        0.0000
     29 C         143.2623  142.4339  168.4591 C.ar    1  UNL1        0.0000
     30 C         143.5659  141.8346  169.8003 C.ar    1  UNL1        0.0000
     31 C         142.9653  140.5152  170.1855 C.ar    1  UNL1        0.0000
     32 C         142.0610  139.7952  169.2296 C.ar    1  UNL1        0.0000
     33 O         142.5939  140.5641  159.4438 O.3     1  UNL1       -0.4708
     34 C         143.8869  140.5259  160.2031 C.3     1  UNL1        0.2320
     35 C         144.0470  141.3398  161.4530 C.ar    1  UNL1        0.0229
     36 C         144.5232  140.6875  162.7169 C.ar    1  UNL1        0.0011
     37 C         144.6832  141.5013  163.9668 C.ar    1  UNL1        0.0239
     38 C         144.3669  142.9675  163.9526 C.ar    1  UNL1        0.1431
     39 N         144.4283  144.0178  165.0217 N.ar    1  UNL1       -0.0483
     40 O         143.9899  145.3193  164.4185 O.2     1  UNL1       -0.2415
     41 N         143.6576  145.0734  162.9766 N.ar    1  UNL1       -0.0483
     42 C         143.8906  143.6198  162.6887 C.ar    1  UNL1        0.1430
     43 C         143.7306  142.8059  161.4389 C.ar    1  UNL1        0.0234
@<TRIPOS>UNITY_ATOM_ATTR
12 1
charge -1
@<TRIPOS>BOND
     1    12    13   ar
     2    13    14   ar
     3    13    11    1
     4    11    15    1
     5    15    16    1
     6    11     9    1
     7     9     8    1
     8     8     1    1
     9     1     2   ar
    10     2     3   ar
    11     3     4    1
    12     3     5   ar
    13     5    18    1
    14    18    19    1
    15    19    20    1
    16    20    21   ar
    17    21    22   ar
    18    22    23   ar
    19    23    24   ar
    20    24    27    1
    21    27    28   ar
    22    28    29   ar
    23    29    30   ar
    24    30    31   ar
    25    31    32   ar
    26    24    25   ar
    27    25    26    1
    28     5     6   ar
    29     6     7   ar
    30     7    33    1
    31    33    34    1
    32    34    35    1
    33    35    36   ar
    34    36    37   ar
    35    37    38   ar
    36    38    39   ar
    37    39    40   ar
    38    40    41   ar
    39    41    42   ar
    40    42    43   ar
    41     7     1   ar
    42    43    35   ar
    43    25    20   ar
    44    42    38   ar
    45    32    27   ar
    46    16    17    1
    47     9    10    1
@<TRIPOS>MOLECULE
*****
 43 47 0 0 0
SMALL
GASTEIGER

@<TRIPOS>ATOM
      1 C         142.2407  144.3642  163.0149 C.ar    1  UNL1        0.0287
      2 C         142.5494  144.3099  161.5480 C.ar    1  UNL1        0.0145
      3 C         143.2932  143.1372  160.9811 C.ar    1  UNL1        0.0915
      4 CL        143.6019  143.0830  159.5141 Cl      1  UNL1       -0.0791
      5 C         143.7284  142.0189  161.8809 C.ar    1  UNL1        0.1525
      6 C         143.4198  142.0731  163.3478 C.ar    1  UNL1        0.0744
      7 C         142.6759  143.2458  163.9148 C.ar    1  UNL1        0.1394
      8 C         141.4969  145.5369  163.5819 C.3     0  ACE0        0.0990
      9 N         140.0375  145.7143  163.2845 N.3     1  UNL1       -0.2883
     10 H         139.6851  146.4088  163.9432 H       1  UNL1        0.1239
     11 CA        139.1089  144.5384  163.3570 C.3     1  UNL1        0.1209
     12 O         138.6863  145.0262  165.8737 O.co2   1  UNL1       -0.5477
     13 C         138.4130  144.2106  164.6447 C.2     1  UNL1        0.0671
     14 OXT       137.4439  143.0672  164.7035 O.co2   1  UNL1       -0.5477
     15 CB        138.8763  143.6904  162.1418 C.3     1  UNL1        0.1584
     16 O         137.4772  143.4114  161.6786 O.3     1  UNL1       -0.3802
     17 H         137.0181  142.8732  162.3423 H       1  UNL1        0.2105
     18 O         144.4722  140.8461  161.3139 O.3     1  UNL1       -0.4697
     19 C         144.1106  139.4531  161.7365 C.3     1  UNL1        0.2325
     20 C         143.8252  139.1572  163.1791 C.ar    1  UNL1        0.0274
     21 C         144.9576  138.9858  164.1478 C.ar    1  UNL1       -0.0002
     22 C         144.6720  138.6899  165.5904 C.ar    1  UNL1       -0.0002
     23 C         143.2543  138.5656  166.0643 C.ar    1  UNL1        0.0005
     24 C         142.1220  138.7371  165.0955 C.ar    1  UNL1        0.0060
     25 C         142.4074  139.0329  163.6529 C.ar    1  UNL1        0.0340
     26 BR        141.2751  139.2044  162.6842 Br      1  UNL1       -0.0492
     27 C         140.7043  138.6127  165.5693 C.ar    1  UNL1        0.0005
     28 C         139.8385  137.4982  165.0608 C.ar    1  UNL1        0.0000
     29 C         138.4208  137.3739  165.5347 C.ar    1  UNL1        0.0000
     30 C         137.8688  138.3640  166.5170 C.ar    1  UNL1        0.0000
     31 C         138.7345  139.4784  167.0256 C.ar    1  UNL1        0.0000
     32 C         140.1522  139.6028  166.5517 C.ar    1  UNL1        0.0000
     33 O         142.3672  143.3002  165.3817 O.3     1  UNL1       -0.4708
     34 C         142.9557  142.2796  166.3102 C.3     1  UNL1        0.2320
     35 C         142.4330  142.1497  167.7103 C.ar    1  UNL1        0.0229
     36 C         143.0860  141.1993  168.6695 C.ar    1  UNL1        0.0011
     37 C         142.5633  141.0694  170.0695 C.ar    1  UNL1        0.0239
     38 C         141.3876  141.8900  170.5102 C.ar    1  UNL1        0.1431
     39 N         140.6568  141.9755  171.8173 N.ar    1  UNL1       -0.0483
     40 O         139.5521  142.9789  171.6659 O.2     1  UNL1       -0.2415
     41 N         139.6002  143.5135  170.2652 N.ar    1  UNL1       -0.0483
     42 C         140.7346  142.8405  169.5509 C.ar    1  UNL1        0.1430
     43 C         141.2573  142.9704  168.1510 C.ar    1  UNL1        0.0234
@<TRIPOS>UNITY_ATOM_ATTR
12 1
charge -1
@<TRIPOS>BOND
     1    12    13   ar
     2    13    14   ar
     3    13    11    1
     4    11    15    1
     5    15    16    1
     6    11     9    1
     7     9     8    1
     8     8     1    1
     9     1     2   ar
    10     2     3   ar
    11     3     4    1
    12     3     5   ar
    13     5    18    1
    14    18    19    1
    15    19    20    1
    16    20    21   ar
    17    21    22   ar
    18    22    23   ar
    19    23    24   ar
    20    24    27    1
    21    27    28   ar
    22    28    29   ar
    23    29    30   ar
    24    30    31   ar
    25    31    32   ar
    26    24    25   ar
    27    25    26    1
    28     5     6   ar
    29     6     7   ar
    30     7    33    1
    31    33    34    1
    32    34    35    1
    33    35    36   ar
    34    36    37   ar
    35    37    38   ar
    36    38    39   ar
    37    39    40   ar
    38    40    41   ar
    39    41    42   ar
    40    42    43   ar
    41     7     1   ar
    42    43    35   ar
    43    25    20   ar
    44    42    38   ar
    45    32    27   ar
    46    16    17    1
    47     9    10    1
@<TRIPOS>MOLECULE
*****
 43 47 0 0 0
SMALL
GASTEIGER

@<TRIPOS>ATOM
      1 C         143.8630  142.7647  162.6983 C.ar    1  UNL1        0.0287
      2 C         144.0035  142.2895  161.2825 C.ar    1  UNL1        0.0145
      3 C         144.0334  140.8198  160.9843 C.ar    1  UNL1        0.0915
      4 CL        144.1739  140.3445  159.5684 Cl      1  UNL1       -0.0791
      5 C         143.9229  139.8253  162.1017 C.ar    1  UNL1        0.1525
      6 C         143.7825  140.3004  163.5175 C.ar    1  UNL1        0.0744
      7 C         143.7525  141.7703  163.8158 C.ar    1  UNL1        0.1394
      8 C         143.8331  144.2345  162.9966 C.3     0  ACE0        0.0990
      9 N         142.7999  145.1098  162.3515 N.3     1  UNL1       -0.2883
     10 H         143.0288  146.0710  162.6045 H       1  UNL1        0.1239
     11 CA        141.3468  144.9130  162.6679 C.3     1  UNL1        0.1209
     12 O         140.5145  143.7311  160.5091 O.co2   1  UNL1       -0.5477
     13 C         140.3469  144.7919  161.5563 C.2     1  UNL1        0.0671
     14 OXT       139.1796  145.7316  161.4919 O.co2   1  UNL1       -0.5477
     15 CB        140.8937  144.8374  164.0958 C.3     1  UNL1        0.1584
     16 O         139.5076  145.2743  164.4669 O.3     1  UNL1       -0.3802
     17 H         139.4189  146.2288  164.3189 H       1  UNL1        0.2105
     18 O         143.9529  138.3555  161.8034 O.3     1  UNL1       -0.4697
     19 C         142.6963  137.6484  161.3897 C.3     1  UNL1        0.2325
     20 C         141.3591  138.2582  161.6898 C.ar    1  UNL1        0.0274
     21 C         140.5933  138.9571  160.6058 C.ar    1  UNL1       -0.0002
     22 C         139.2560  139.5668  160.9060 C.ar    1  UNL1       -0.0002
     23 C         138.6846  139.4777  162.2901 C.ar    1  UNL1        0.0005
     24 C         139.4506  138.7787  163.3740 C.ar    1  UNL1        0.0060
     25 C         140.7878  138.1690  163.0739 C.ar    1  UNL1        0.0340
     26 BR        141.5536  137.4701  164.1578 Br      1  UNL1       -0.0492
     27 C         138.8792  138.6896  164.7581 C.ar    1  UNL1        0.0005
     28 C         138.2730  137.4041  165.2379 C.ar    1  UNL1        0.0000
     29 C         137.7017  137.3150  166.6219 C.ar    1  UNL1        0.0000
     30 C         137.7366  138.5113  167.5262 C.ar    1  UNL1        0.0000
     31 C         138.3427  139.7967  167.0464 C.ar    1  UNL1        0.0000
     32 C         138.9141  139.8859  165.6623 C.ar    1  UNL1        0.0000
     33 O         143.6121  142.2455  165.2316 O.3     1  UNL1       -0.4708
     34 C         143.2337  141.2779  166.3135 C.3     1  UNL1        0.2320
     35 C         142.3361  141.7171  167.4322 C.ar    1  UNL1        0.0229
     36 C         141.1417  142.5768  167.1420 C.ar    1  UNL1        0.0011
     37 C         140.2441  143.0160  168.2607 C.ar    1  UNL1        0.0239
     38 C         140.5411  142.5955  169.6696 C.ar    1  UNL1        0.1431
     39 N         139.8422  142.8715  170.9678 N.ar    1  UNL1       -0.0483
     40 O         140.6047  142.1823  172.0603 O.2     1  UNL1       -0.2415
     41 N         141.7749  141.4805  171.4374 N.ar    1  UNL1       -0.0483
     42 C         141.7355  141.7358  169.9598 C.ar    1  UNL1        0.1430
     43 C         142.6331  141.2966  168.8411 C.ar    1  UNL1        0.0234
@<TRIPOS>UNITY_ATOM_ATTR
12 1
charge -1
@<TRIPOS>BOND
     1    12    13   ar
     2    13    14   ar
     3    13    11    1
     4    11    15    1
     5    15    16    1
     6    11     9    1
     7     9     8    1
     8     8     1    1
     9     1     2   ar
    10     2     3   ar
    11     3     4    1
    12     3     5   ar
    13     5    18    1
    14    18    19    1
    15    19    20    1
    16    20    21   ar
    17    21    22   ar
    18    22    23   ar
    19    23    24   ar
    20    24    27    1
    21    27    28   ar
    22    28    29   ar
    23    29    30   ar
    24    30    31   ar
    25    31    32   ar
    26    24    25   ar
    27    25    26    1
    28     5     6   ar
    29     6     7   ar
    30     7    33    1
    31    33    34    1
    32    34    35    1
    33    35    36   ar
    34    36    37   ar
    35    37    38   ar
    36    38    39   ar
    37    39    40   ar
    38    40    41   ar
    39    41    42   ar
    40    42    43   ar
    41     7     1   ar
    42    43    35   ar
    43    25    20   ar
    44    42    38   ar
    45    32    27   ar
    46    16    17    1
    47     9    10    1
