@<TRIPOS>MOLECULE
*****
 31 34 0 0 0
SMALL
GASTEIGER

@<TRIPOS>ATOM
      1 C         139.8442  141.0061  161.9864 C.3     1  UNL1        0.1505
      2 O         140.2186  142.0262  160.9525 O.3     1  UNL1       -0.3788
      3 H         140.5103  141.5757  160.1445 H       1  UNL1        0.2108
      4 C         139.4982  142.1057  162.9461 C.ar    1  UNL1        0.0330
      5 C         138.0613  142.4221  163.2378 C.ar    1  UNL1        0.0026
      6 C         137.7152  143.5217  164.1975 C.ar    1  UNL1        0.0295
      7 C         138.8062  144.3050  164.8656 C.ar    1  UNL1        0.1424
      8 F         138.4601  145.4046  165.8253 F       1  UNL1       -0.2041
      9 C         140.2431  143.9886  164.5739 C.ar    1  UNL1        0.0590
     10 C         140.5891  142.8890  163.6142 C.ar    1  UNL1        0.1407
     11 F         142.0261  142.5727  163.3225 F       1  UNL1       -0.2043
     12 C         138.2857  139.0921  162.7978 C.3     1  UNL1        0.0275
     13 C         139.4698  139.9859  163.0204 C.3     1  UNL1        0.1202
     14 N         140.2792  139.8594  164.2768 N.ar    1  UNL1       -0.2773
     15 C         141.7466  139.5585  164.1965 C.ar    1  UNL1        0.1808
     16 N         142.5560  139.4320  165.4530 N.ar    1  UNL1       -0.2252
     17 C         141.8982  139.6064  166.7898 C.ar    1  UNL1        0.0884
     18 C         142.7077  139.4799  168.0462 C.ar    1  UNL1        0.0307
     19 C         142.0499  139.6543  169.3829 C.ar    1  UNL1        0.0592
     20 CL        142.8594  139.5279  170.6394 Cl      1  UNL1       -0.0822
     21 C         140.5825  139.9552  169.4631 C.ar    1  UNL1        0.0116
     22 C         139.7731  140.0817  168.2067 C.ar    1  UNL1        0.0071
     23 C         140.4309  139.9073  166.8700 C.ar    1  UNL1        0.0739
     24 C         139.6214  140.0338  165.6135 C.ar    1  UNL1        0.2634
     25 O         138.1541  140.3347  165.6937 O.2     1  UNL1       -0.2669
     26 C         140.1902  139.9064  161.0267 C.3     1  UNL1        0.1621
     27 N         141.6116  139.4458  160.8947 N.ar    1  UNL1       -0.2272
     28 C         142.0748  138.0203  160.8386 C.ar    1  UNL1        0.1973
     29 N         143.5689  138.0233  160.7049 N.ar    1  UNL1       -0.2007
     30 C         144.0290  139.4508  160.6783 C.ar    1  UNL1        0.2210
     31 N         142.8194  140.3300  160.7956 N.ar    1  UNL1       -0.1451
@<TRIPOS>BOND
     1    13    12    1
     2    13    14    1
     3    14    15   ar
     4    15    16   ar
     5    16    17   ar
     6    17    18   ar
     7    18    19   ar
     8    19    20    1
     9    19    21   ar
    10    21    22   ar
    11    22    23   ar
    12    23    24   ar
    13    24    25    2
    14    13     1    1
    15     1     2    1
    16     1    26    1
    17    26    27    1
    18    27    28   ar
    19    28    29   ar
    20    29    30   ar
    21    30    31   ar
    22     1     4    1
    23     4     5   ar
    24     5     6   ar
    25     6     7   ar
    26     7     8    1
    27     7     9   ar
    28     9    10   ar
    29    10    11    1
    30    24    14   ar
    31    31    27   ar
    32    10     4   ar
    33    23    17   ar
    34     2     3    1
@<TRIPOS>MOLECULE
*****
 31 34 0 0 0
SMALL
GASTEIGER

@<TRIPOS>ATOM
      1 C         140.5261  141.2685  166.9420 C.3     1  UNL1        0.1505
      2 O         139.4966  140.4505  167.6637 O.3     1  UNL1       -0.3788
      3 H         139.1872  140.9358  168.4445 H       1  UNL1        0.2108
      4 C         140.6695  140.1833  165.9164 C.ar    1  UNL1        0.0330
      5 C         141.8560  139.2665  165.9555 C.ar    1  UNL1        0.0026
      6 C         141.9994  138.1813  164.9299 C.ar    1  UNL1        0.0295
      7 C         140.9563  138.0129  163.8653 C.ar    1  UNL1        0.1424
      8 F         141.0997  136.9276  162.8398 F       1  UNL1       -0.2041
      9 C         139.7697  138.9296  163.8263 C.ar    1  UNL1        0.0590
     10 C         139.6264  140.0149  164.8518 C.ar    1  UNL1        0.1407
     11 F         138.4397  140.9317  164.8127 F       1  UNL1       -0.2043
     12 C         142.9710  142.1179  166.7161 C.3     1  UNL1        0.0275
     13 C         141.5556  142.0866  166.2203 C.3     1  UNL1        0.1202
     14 N         141.1699  142.8733  165.0028 N.ar    1  UNL1       -0.2773
     15 C         140.0606  143.8799  165.0808 C.ar    1  UNL1        0.1808
     16 N         139.6748  144.6666  163.8633 N.ar    1  UNL1       -0.2252
     17 C         140.3983  144.4467  162.5678 C.ar    1  UNL1        0.0884
     18 C         140.0125  145.2334  161.3504 C.ar    1  UNL1        0.0307
     19 C         140.7360  145.0134  160.0550 C.ar    1  UNL1        0.0592
     20 CL        140.3502  145.8001  158.8374 Cl      1  UNL1       -0.0822
     21 C         141.8453  144.0067  159.9770 C.ar    1  UNL1        0.0116
     22 C         142.2311  143.2200  161.1945 C.ar    1  UNL1        0.0071
     23 C         141.5076  143.4400  162.4899 C.ar    1  UNL1        0.0739
     24 C         141.8934  142.6533  163.7074 C.ar    1  UNL1        0.2634
     25 O         143.0027  141.6466  163.6295 O.2     1  UNL1       -0.2669
     26 C         140.3827  142.3537  167.9675 C.3     1  UNL1        0.1621
     27 N         140.6001  142.0469  169.4196 N.ar    1  UNL1       -0.2272
     28 C         139.9753  142.7689  170.5764 C.ar    1  UNL1        0.1973
     29 N         140.4695  142.1323  171.8416 N.ar    1  UNL1       -0.2007
     30 C         141.3997  141.0169  171.4667 C.ar    1  UNL1        0.2210
     31 N         141.4805  140.9641  169.9697 N.ar    1  UNL1       -0.1451
@<TRIPOS>BOND
     1    13    12    1
     2    13    14    1
     3    14    15   ar
     4    15    16   ar
     5    16    17   ar
     6    17    18   ar
     7    18    19   ar
     8    19    20    1
     9    19    21   ar
    10    21    22   ar
    11    22    23   ar
    12    23    24   ar
    13    24    25    2
    14    13     1    1
    15     1     2    1
    16     1    26    1
    17    26    27    1
    18    27    28   ar
    19    28    29   ar
    20    29    30   ar
    21    30    31   ar
    22     1     4    1
    23     4     5   ar
    24     5     6   ar
    25     6     7   ar
    26     7     8    1
    27     7     9   ar
    28     9    10   ar
    29    10    11    1
    30    24    14   ar
    31    31    27   ar
    32    10     4   ar
    33    23    17   ar
    34     2     3    1
@<TRIPOS>MOLECULE
*****
 31 34 0 0 0
SMALL
GASTEIGER

@<TRIPOS>ATOM
      1 C         141.8430  140.6412  166.8416 C.3     1  UNL1        0.1505
      2 O         142.8076  140.0668  167.8363 O.3     1  UNL1       -0.3788
      3 H         142.3218  139.7594  168.6176 H       1  UNL1        0.2108
      4 C         142.9810  140.9423  165.9119 C.ar    1  UNL1        0.0330
      5 C         143.4620  142.3535  165.7477 C.ar    1  UNL1        0.0026
      6 C         144.6000  142.6546  164.8180 C.ar    1  UNL1        0.0295
      7 C         145.2569  141.5445  164.0525 C.ar    1  UNL1        0.1424
      8 F         146.3949  141.8457  163.1228 F       1  UNL1       -0.2041
      9 C         144.7759  140.1333  164.2167 C.ar    1  UNL1        0.0590
     10 C         143.6379  139.8322  165.1464 C.ar    1  UNL1        0.1407
     11 F         143.1569  138.4209  165.3105 F       1  UNL1       -0.2043
     12 C         140.2041  142.5260  166.1264 C.3     1  UNL1        0.0275
     13 C         140.8783  141.2155  165.8468 C.3     1  UNL1        0.1202
     14 N         140.5879  140.4795  164.5725 N.ar    1  UNL1       -0.2773
     15 C         140.0366  139.0853  164.6206 C.ar    1  UNL1        0.1808
     16 N         139.7462  138.3493  163.3463 N.ar    1  UNL1       -0.2252
     17 C         140.0071  139.0074  162.0238 C.ar    1  UNL1        0.0884
     18 C         139.7167  138.2714  160.7496 C.ar    1  UNL1        0.0307
     19 C         139.9776  138.9295  159.4272 C.ar    1  UNL1        0.0592
     20 CL        139.6872  138.1934  158.1528 Cl      1  UNL1       -0.0822
     21 C         140.5289  140.3237  159.3791 C.ar    1  UNL1        0.0116
     22 C         140.8193  141.0597  160.6534 C.ar    1  UNL1        0.0071
     23 C         140.5584  140.4016  161.9758 C.ar    1  UNL1        0.0739
     24 C         140.8488  141.1376  163.2501 C.ar    1  UNL1        0.2634
     25 O         141.4001  142.5318  163.2020 O.2     1  UNL1       -0.2669
     26 C         140.7050  140.3400  167.7712 C.3     1  UNL1        0.1621
     27 N         140.7782  140.7638  169.2082 N.ar    1  UNL1       -0.2272
     28 C         140.1585  140.0477  170.3713 C.ar    1  UNL1        0.1973
     29 N         140.4813  140.8195  171.6164 N.ar    1  UNL1       -0.2007
     30 C         141.3006  142.0127  171.2228 C.ar    1  UNL1        0.2210
     31 N         141.4842  141.9784  169.7344 N.ar    1  UNL1       -0.1451
@<TRIPOS>BOND
     1    13    12    1
     2    13    14    1
     3    14    15   ar
     4    15    16   ar
     5    16    17   ar
     6    17    18   ar
     7    18    19   ar
     8    19    20    1
     9    19    21   ar
    10    21    22   ar
    11    22    23   ar
    12    23    24   ar
    13    24    25    2
    14    13     1    1
    15     1     2    1
    16     1    26    1
    17    26    27    1
    18    27    28   ar
    19    28    29   ar
    20    29    30   ar
    21    30    31   ar
    22     1     4    1
    23     4     5   ar
    24     5     6   ar
    25     6     7   ar
    26     7     8    1
    27     7     9   ar
    28     9    10   ar
    29    10    11    1
    30    24    14   ar
    31    31    27   ar
    32    10     4   ar
    33    23    17   ar
    34     2     3    1
@<TRIPOS>MOLECULE
*****
 31 34 0 0 0
SMALL
GASTEIGER

@<TRIPOS>ATOM
      1 C         141.1088  139.8631  167.2368 C.3     1  UNL1        0.1505
      2 O         142.2983  139.4719  168.0628 O.3     1  UNL1       -0.3788
      3 H         142.1083  139.6339  169.0001 H       1  UNL1        0.2108
      4 C         141.8409  139.4592  165.9914 C.ar    1  UNL1        0.0330
      5 C         141.4302  138.2231  165.2475 C.ar    1  UNL1        0.0026
      6 C         142.1622  137.8192  164.0021 C.ar    1  UNL1        0.0295
      7 C         143.3049  138.6514  163.5006 C.ar    1  UNL1        0.1424
      8 F         144.0370  138.2476  162.2552 F       1  UNL1       -0.2041
      9 C         143.7156  139.8875  164.2444 C.ar    1  UNL1        0.0590
     10 C         142.9836  140.2914  165.4898 C.ar    1  UNL1        0.1407
     11 F         143.3943  141.5276  166.2337 F       1  UNL1       -0.2043
     12 C         138.6436  139.4722  166.5156 C.3     1  UNL1        0.0275
     13 C         139.9194  140.2542  166.4108 C.3     1  UNL1        0.1202
     14 N         140.0057  141.4273  165.4801 N.ar    1  UNL1       -0.2773
     15 C         140.3756  142.7805  166.0112 C.ar    1  UNL1        0.1808
     16 N         140.4618  143.9536  165.0804 N.ar    1  UNL1       -0.2252
     17 C         140.1782  143.7736  163.6185 C.ar    1  UNL1        0.0884
     18 C         140.2645  144.9467  162.6878 C.ar    1  UNL1        0.0307
     19 C         139.9809  144.7666  161.2259 C.ar    1  UNL1        0.0592
     20 CL        140.0671  145.9398  160.2951 Cl      1  UNL1       -0.0822
     21 C         139.6110  143.4134  160.6948 C.ar    1  UNL1        0.0116
     22 C         139.5247  142.2403  161.6255 C.ar    1  UNL1        0.0071
     23 C         139.8083  142.4204  163.0874 C.ar    1  UNL1        0.0739
     24 C         139.7221  141.2473  164.0182 C.ar    1  UNL1        0.2634
     25 O         139.3522  139.8941  163.4871 O.2     1  UNL1       -0.2669
     26 C         140.3768  140.2669  168.4822 C.3     1  UNL1        0.1621
     27 N         141.0441  141.1557  169.4895 N.ar    1  UNL1       -0.2272
     28 C         140.8181  141.1330  170.9721 C.ar    1  UNL1        0.1973
     29 N         141.6889  142.1866  171.5900 N.ar    1  UNL1       -0.2007
     30 C         142.4531  142.8605  170.4892 C.ar    1  UNL1        0.2210
     31 N         142.0546  142.2235  169.1909 N.ar    1  UNL1       -0.1451
@<TRIPOS>BOND
     1    13    12    1
     2    13    14    1
     3    14    15   ar
     4    15    16   ar
     5    16    17   ar
     6    17    18   ar
     7    18    19   ar
     8    19    20    1
     9    19    21   ar
    10    21    22   ar
    11    22    23   ar
    12    23    24   ar
    13    24    25    2
    14    13     1    1
    15     1     2    1
    16     1    26    1
    17    26    27    1
    18    27    28   ar
    19    28    29   ar
    20    29    30   ar
    21    30    31   ar
    22     1     4    1
    23     4     5   ar
    24     5     6   ar
    25     6     7   ar
    26     7     8    1
    27     7     9   ar
    28     9    10   ar
    29    10    11    1
    30    24    14   ar
    31    31    27   ar
    32    10     4   ar
    33    23    17   ar
    34     2     3    1
@<TRIPOS>MOLECULE
*****
 31 34 0 0 0
SMALL
GASTEIGER

@<TRIPOS>ATOM
      1 C         142.0572  143.9905  161.3547 C.3     1  UNL1        0.1505
      2 O         142.7693  143.7766  160.0520 O.3     1  UNL1       -0.3788
      3 H         142.3707  144.3390  159.3695 H       1  UNL1        0.2108
      4 C         142.9627  142.9924  162.0135 C.ar    1  UNL1        0.0330
      5 C         142.6535  141.5272  161.9265 C.ar    1  UNL1        0.0026
      6 C         143.5590  140.5292  162.5853 C.ar    1  UNL1        0.0295
      7 C         144.7737  140.9963  163.3310 C.ar    1  UNL1        0.1424
      8 F         145.6792  139.9983  163.9898 F       1  UNL1       -0.2041
      9 C         145.0829  142.4615  163.4181 C.ar    1  UNL1        0.0590
     10 C         144.1774  143.4595  162.7593 C.ar    1  UNL1        0.1407
     11 F         144.4867  144.9248  162.8463 F       1  UNL1       -0.2043
     12 C         141.4586  145.5211  163.3669 C.3     1  UNL1        0.0275
     13 C         141.3451  144.2043  162.6575 C.3     1  UNL1        0.1202
     14 N         140.5196  143.1014  163.2509 N.ar    1  UNL1       -0.2773
     15 C         139.3701  142.5259  162.4779 C.ar    1  UNL1        0.1808
     16 N         138.5446  141.4230  163.0713 N.ar    1  UNL1       -0.2252
     17 C         138.8685  140.8956  164.4377 C.ar    1  UNL1        0.0884
     18 C         138.0430  139.7928  165.0310 C.ar    1  UNL1        0.0307
     19 C         138.3669  139.2655  166.3974 C.ar    1  UNL1        0.0592
     20 CL        137.5414  138.1625  166.9908 Cl      1  UNL1       -0.0822
     21 C         139.5164  139.8410  167.1704 C.ar    1  UNL1        0.0116
     22 C         140.3419  140.9439  166.5770 C.ar    1  UNL1        0.0071
     23 C         140.0180  141.4712  165.2106 C.ar    1  UNL1        0.0739
     24 C         140.8435  142.5741  164.6172 C.ar    1  UNL1        0.2634
     25 O         141.9930  143.1497  165.3902 O.2     1  UNL1       -0.2669
     26 C         141.1517  144.9885  160.6960 C.3     1  UNL1        0.1621
     27 N         140.5352  144.6774  159.3644 N.ar    1  UNL1       -0.2272
     28 C         140.4104  145.6243  158.2078 C.ar    1  UNL1        0.1973
     29 N         139.7333  144.8969  157.0842 N.ar    1  UNL1       -0.2007
     30 C         139.4395  143.5004  157.5464 C.ar    1  UNL1        0.2210
     31 N         139.9351  143.3647  158.9557 N.ar    1  UNL1       -0.1451
@<TRIPOS>BOND
     1    13    12    1
     2    13    14    1
     3    14    15   ar
     4    15    16   ar
     5    16    17   ar
     6    17    18   ar
     7    18    19   ar
     8    19    20    1
     9    19    21   ar
    10    21    22   ar
    11    22    23   ar
    12    23    24   ar
    13    24    25    2
    14    13     1    1
    15     1     2    1
    16     1    26    1
    17    26    27    1
    18    27    28   ar
    19    28    29   ar
    20    29    30   ar
    21    30    31   ar
    22     1     4    1
    23     4     5   ar
    24     5     6   ar
    25     6     7   ar
    26     7     8    1
    27     7     9   ar
    28     9    10   ar
    29    10    11    1
    30    24    14   ar
    31    31    27   ar
    32    10     4   ar
    33    23    17   ar
    34     2     3    1
@<TRIPOS>MOLECULE
*****
 31 34 0 0 0
SMALL
GASTEIGER

@<TRIPOS>ATOM
      1 C         141.5576  142.1431  166.8610 C.3     1  UNL1        0.1505
      2 O         142.4997  142.4849  167.9771 O.3     1  UNL1       -0.3788
      3 H         141.9929  142.6633  168.7847 H       1  UNL1        0.2108
      4 C         142.7218  141.9713  165.9309 C.ar    1  UNL1        0.0330
      5 C         143.3585  143.1722  165.2965 C.ar    1  UNL1        0.0026
      6 C         144.5228  143.0004  164.3664 C.ar    1  UNL1        0.0295
      7 C         145.0503  141.6277  164.0707 C.ar    1  UNL1        0.1424
      8 F         146.2145  141.4559  163.1407 F       1  UNL1       -0.2041
      9 C         144.4136  140.4269  164.7051 C.ar    1  UNL1        0.0590
     10 C         143.2493  140.5987  165.6352 C.ar    1  UNL1        0.1407
     11 F         142.6126  139.3977  166.2696 F       1  UNL1       -0.2043
     12 C         139.7938  140.5483  165.8142 C.3     1  UNL1        0.0275
     13 C         140.6155  141.8014  165.7449 C.3     1  UNL1        0.1202
     14 N         140.4951  142.7126  164.5595 N.ar    1  UNL1       -0.2773
     15 C         140.0810  144.1415  164.7509 C.ar    1  UNL1        0.1808
     16 N         139.9606  145.0527  163.5656 N.ar    1  UNL1       -0.2252
     17 C         140.2544  144.5350  162.1887 C.ar    1  UNL1        0.0884
     18 C         140.1340  145.4462  161.0033 C.ar    1  UNL1        0.0307
     19 C         140.4277  144.9285  159.6265 C.ar    1  UNL1        0.0592
     20 CL        140.3073  145.8397  158.4410 Cl      1  UNL1       -0.0822
     21 C         140.8419  143.4996  159.4351 C.ar    1  UNL1        0.0116
     22 C         140.9623  142.5884  160.6204 C.ar    1  UNL1        0.0071
     23 C         140.6685  143.1061  161.9972 C.ar    1  UNL1        0.0739
     24 C         140.7889  142.1949  163.1827 C.ar    1  UNL1        0.2634
     25 O         141.2030  140.7659  162.9913 O.2     1  UNL1       -0.2669
     26 C         140.3934  142.3149  167.7911 C.3     1  UNL1        0.1621
     27 N         140.5473  142.0052  169.2506 N.ar    1  UNL1       -0.2272
     28 C         140.0889  142.8684  170.3883 C.ar    1  UNL1        0.1973
     29 N         140.4451  142.1744  171.6696 N.ar    1  UNL1       -0.2007
     30 C         141.1236  140.8822  171.3237 C.ar    1  UNL1        0.2210
     31 N         141.1869  140.7775  169.8287 N.ar    1  UNL1       -0.1451
@<TRIPOS>BOND
     1    13    12    1
     2    13    14    1
     3    14    15   ar
     4    15    16   ar
     5    16    17   ar
     6    17    18   ar
     7    18    19   ar
     8    19    20    1
     9    19    21   ar
    10    21    22   ar
    11    22    23   ar
    12    23    24   ar
    13    24    25    2
    14    13     1    1
    15     1     2    1
    16     1    26    1
    17    26    27    1
    18    27    28   ar
    19    28    29   ar
    20    29    30   ar
    21    30    31   ar
    22     1     4    1
    23     4     5   ar
    24     5     6   ar
    25     6     7   ar
    26     7     8    1
    27     7     9   ar
    28     9    10   ar
    29    10    11    1
    30    24    14   ar
    31    31    27   ar
    32    10     4   ar
    33    23    17   ar
    34     2     3    1
@<TRIPOS>MOLECULE
*****
 31 34 0 0 0
SMALL
GASTEIGER

@<TRIPOS>ATOM
      1 C         142.4932  139.9701  162.8483 C.3     1  UNL1        0.1505
      2 O         141.8041  139.7852  161.5289 O.3     1  UNL1       -0.3788
      3 H         142.3038  140.2446  160.8359 H       1  UNL1        0.2108
      4 C         141.4301  139.1511  163.5183 C.ar    1  UNL1        0.0330
      5 C         141.7323  137.7520  163.9667 C.ar    1  UNL1        0.0026
      6 C         140.6691  136.9330  164.6368 C.ar    1  UNL1        0.0295
      7 C         139.3038  137.5131  164.8584 C.ar    1  UNL1        0.1424
      8 F         138.2406  136.6941  165.5285 F       1  UNL1       -0.2041
      9 C         139.0016  138.9122  164.4100 C.ar    1  UNL1        0.0590
     10 C         140.0647  139.7312  163.7400 C.ar    1  UNL1        0.1407
     11 F         139.7624  141.1304  163.2916 F       1  UNL1       -0.2043
     12 C         144.5675  139.6168  164.3724 C.3     1  UNL1        0.0275
     13 C         143.1823  140.1550  164.1677 C.3     1  UNL1        0.1202
     14 N         142.4864  140.8781  165.2825 N.ar    1  UNL1       -0.2773
     15 C         142.0064  142.2847  165.0797 C.ar    1  UNL1        0.1808
     16 N         141.3105  143.0077  166.1945 N.ar    1  UNL1       -0.2252
     17 C         141.0944  142.3242  167.5121 C.ar    1  UNL1        0.0884
     18 C         140.3985  143.0473  168.6269 C.ar    1  UNL1        0.0307
     19 C         140.1825  142.3637  169.9445 C.ar    1  UNL1        0.0592
     20 CL        139.4865  143.0868  171.0594 Cl      1  UNL1       -0.0822
     21 C         140.6624  140.9571  170.1473 C.ar    1  UNL1        0.0116
     22 C         141.3584  140.2341  169.0325 C.ar    1  UNL1        0.0071
     23 C         141.5744  140.9176  167.7150 C.ar    1  UNL1        0.0739
     24 C         142.2704  140.1945  166.6001 C.ar    1  UNL1        0.2634
     25 O         142.7503  138.7879  166.8029 O.2     1  UNL1       -0.2669
     26 C         143.5564  140.7891  162.1783 C.3     1  UNL1        0.1621
     27 N         143.4115  142.2795  162.0911 N.ar    1  UNL1       -0.2272
     28 C         144.4423  143.2907  162.4968 C.ar    1  UNL1        0.1973
     29 N         143.8782  144.6566  162.2394 N.ar    1  UNL1       -0.2007
     30 C         142.4988  144.4895  161.6746 C.ar    1  UNL1        0.2210
     31 N         142.2102  143.0204  161.5829 N.ar    1  UNL1       -0.1451
@<TRIPOS>BOND
     1    13    12    1
     2    13    14    1
     3    14    15   ar
     4    15    16   ar
     5    16    17   ar
     6    17    18   ar
     7    18    19   ar
     8    19    20    1
     9    19    21   ar
    10    21    22   ar
    11    22    23   ar
    12    23    24   ar
    13    24    25    2
    14    13     1    1
    15     1     2    1
    16     1    26    1
    17    26    27    1
    18    27    28   ar
    19    28    29   ar
    20    29    30   ar
    21    30    31   ar
    22     1     4    1
    23     4     5   ar
    24     5     6   ar
    25     6     7   ar
    26     7     8    1
    27     7     9   ar
    28     9    10   ar
    29    10    11    1
    30    24    14   ar
    31    31    27   ar
    32    10     4   ar
    33    23    17   ar
    34     2     3    1
@<TRIPOS>MOLECULE
*****
 31 34 0 0 0
SMALL
GASTEIGER

@<TRIPOS>ATOM
      1 C         141.7281  140.6806  166.9562 C.3     1  UNL1        0.1505
      2 O         141.9687  139.5235  167.8799 O.3     1  UNL1       -0.3788
      3 H         142.4944  139.8200  168.6393 H       1  UNL1        0.2108
      4 C         140.9508  139.7854  166.0373 C.ar    1  UNL1        0.0330
      5 C         139.4515  139.8304  166.0373 C.ar    1  UNL1        0.0026
      6 C         138.6742  138.9352  165.1184 C.ar    1  UNL1        0.0295
      7 C         139.3962  137.9949  164.1995 C.ar    1  UNL1        0.1424
      8 F         138.6189  137.0996  163.2806 F       1  UNL1       -0.2041
      9 C         140.8955  137.9498  164.1995 C.ar    1  UNL1        0.0590
     10 C         141.6728  138.8450  165.1184 C.ar    1  UNL1        0.1407
     11 F         143.1721  138.7999  165.1183 F       1  UNL1       -0.2043
     12 C         140.4213  142.8433  166.3518 C.3     1  UNL1        0.0275
     13 C         141.4875  141.8376  166.0324 C.3     1  UNL1        0.1202
     14 N         142.3131  141.9891  164.7892 N.ar    1  UNL1       -0.2773
     15 C         143.8042  142.1168  164.8901 C.ar    1  UNL1        0.1808
     16 N         144.6298  142.2683  163.6469 N.ar    1  UNL1       -0.2252
     17 C         143.9642  142.2920  162.3028 C.ar    1  UNL1        0.0884
     18 C         144.7897  142.4434  161.0597 C.ar    1  UNL1        0.0307
     19 C         144.1242  142.4671  159.7157 C.ar    1  UNL1        0.0592
     20 CL        144.9497  142.6186  158.4724 Cl      1  UNL1       -0.0822
     21 C         142.6330  142.3394  159.6148 C.ar    1  UNL1        0.0116
     22 C         141.8075  142.1879  160.8580 C.ar    1  UNL1        0.0071
     23 C         142.4730  142.1642  162.2020 C.ar    1  UNL1        0.0739
     24 C         141.6475  142.0128  163.4452 C.ar    1  UNL1        0.2634
     25 O         140.1563  141.8850  163.3444 O.2     1  UNL1       -0.2669
     26 C         142.5054  141.5758  167.8750 C.3     1  UNL1        0.1621
     27 N         142.0359  141.7954  169.2826 N.ar    1  UNL1       -0.2272
     28 C         142.7676  142.5573  170.3474 C.ar    1  UNL1        0.1973
     29 N         141.9361  142.5244  171.5954 N.ar    1  UNL1       -0.2007
     30 C         140.6904  141.7422  171.3019 C.ar    1  UNL1        0.2210
     31 N         140.7519  141.2915  169.8725 N.ar    1  UNL1       -0.1451
@<TRIPOS>BOND
     1    13    12    1
     2    13    14    1
     3    14    15   ar
     4    15    16   ar
     5    16    17   ar
     6    17    18   ar
     7    18    19   ar
     8    19    20    1
     9    19    21   ar
    10    21    22   ar
    11    22    23   ar
    12    23    24   ar
    13    24    25    2
    14    13     1    1
    15     1     2    1
    16     1    26    1
    17    26    27    1
    18    27    28   ar
    19    28    29   ar
    20    29    30   ar
    21    30    31   ar
    22     1     4    1
    23     4     5   ar
    24     5     6   ar
    25     6     7   ar
    26     7     8    1
    27     7     9   ar
    28     9    10   ar
    29    10    11    1
    30    24    14   ar
    31    31    27   ar
    32    10     4   ar
    33    23    17   ar
    34     2     3    1
@<TRIPOS>MOLECULE
*****
 31 34 0 0 0
SMALL
GASTEIGER

@<TRIPOS>ATOM
      1 C         139.5633  141.8173  162.1428 C.3     1  UNL1        0.1505
      2 O         140.3633  141.7194  160.8778 O.3     1  UNL1       -0.3788
      3 H         140.2945  142.5528  160.3863 H       1  UNL1        0.2108
      4 C         139.9591  140.4156  162.5016 C.ar    1  UNL1        0.0330
      5 C         138.9618  139.3014  162.3843 C.ar    1  UNL1        0.0026
      6 C         139.3575  137.8997  162.7431 C.ar    1  UNL1        0.0295
      7 C         140.7506  137.6123  163.2191 C.ar    1  UNL1        0.1424
      8 F         141.1464  136.2106  163.5779 F       1  UNL1       -0.2041
      9 C         141.7479  138.7265  163.3364 C.ar    1  UNL1        0.0590
     10 C         141.3522  140.1282  162.9776 C.ar    1  UNL1        0.1407
     11 F         142.3496  141.2424  163.0949 F       1  UNL1       -0.2043
     12 C         137.2650  141.9547  163.3466 C.3     1  UNL1        0.0275
     13 C         138.7633  141.9152  163.4079 C.3     1  UNL1        0.1202
     14 N         139.4615  141.9736  164.7342 N.ar    1  UNL1       -0.2773
     15 C         140.4810  143.0416  164.9987 C.ar    1  UNL1        0.1808
     16 N         141.1792  143.1000  166.3250 N.ar    1  UNL1       -0.2252
     17 C         140.8579  142.0903  167.3868 C.ar    1  UNL1        0.0884
     18 C         141.5561  142.1486  168.7131 C.ar    1  UNL1        0.0307
     19 C         141.2349  141.1390  169.7748 C.ar    1  UNL1        0.0592
     20 CL        141.9331  141.1973  171.1012 Cl      1  UNL1       -0.0822
     21 C         140.2154  140.0709  169.5103 C.ar    1  UNL1        0.0116
     22 C         139.5172  140.0126  168.1840 C.ar    1  UNL1        0.0071
     23 C         139.8385  141.0222  167.1223 C.ar    1  UNL1        0.0739
     24 C         139.1403  140.9639  165.7959 C.ar    1  UNL1        0.2634
     25 O         138.1208  139.8958  165.5313 O.2     1  UNL1       -0.2669
     26 C         139.1676  143.2189  161.7841 C.3     1  UNL1        0.1621
     27 N         139.9105  143.9564  160.7098 N.ar    1  UNL1       -0.2272
     28 C         141.1128  144.8305  160.9103 C.ar    1  UNL1        0.1973
     29 N         141.5271  145.3635  159.5707 N.ar    1  UNL1       -0.2007
     30 C         140.5807  144.8189  158.5423 C.ar    1  UNL1        0.2210
     31 N         139.5816  143.9491  159.2462 N.ar    1  UNL1       -0.1451
@<TRIPOS>BOND
     1    13    12    1
     2    13    14    1
     3    14    15   ar
     4    15    16   ar
     5    16    17   ar
     6    17    18   ar
     7    18    19   ar
     8    19    20    1
     9    19    21   ar
    10    21    22   ar
    11    22    23   ar
    12    23    24   ar
    13    24    25    2
    14    13     1    1
    15     1     2    1
    16     1    26    1
    17    26    27    1
    18    27    28   ar
    19    28    29   ar
    20    29    30   ar
    21    30    31   ar
    22     1     4    1
    23     4     5   ar
    24     5     6   ar
    25     6     7   ar
    26     7     8    1
    27     7     9   ar
    28     9    10   ar
    29    10    11    1
    30    24    14   ar
    31    31    27   ar
    32    10     4   ar
    33    23    17   ar
    34     2     3    1
