@<TRIPOS>MOLECULE
*****
 32 35 0 0 0
SMALL
GASTEIGER

@<TRIPOS>ATOM
      1 C         142.1416  140.2550  164.0880 C.2     1  UNL1        0.1225
      2 C         142.5793  140.5808  162.6908 C.2     1  UNL1        0.1079
      3 N         142.0668  141.8171  162.0134 N.pl3   1  UNL1       -0.2035
      4 C         141.1165  142.7275  162.7331 C.2     1  UNL1        0.4113
      5 N         140.6788  142.4017  164.1302 N.2     1  UNL1       -0.0911
      6 C         141.1913  141.1654  164.8077 C.3     1  UNL1        0.2340
      7 H         142.3541  142.0309  161.0963 H       1  UNL1        0.2512
      8 C         140.7535  140.8396  166.2050 C.ar    1  UNL1        0.0279
      9 C         139.5072  140.0364  166.4323 C.ar    1  UNL1        0.0022
     10 C         139.0694  139.7106  167.8295 C.ar    1  UNL1        0.0295
     11 C         139.8778  140.1879  168.9994 C.ar    1  UNL1        0.1406
     12 F         139.4400  139.8621  170.3965 F       1  UNL1       -0.2042
     13 C         141.1241  140.9911  168.7720 C.ar    1  UNL1        0.0361
     14 C         141.5619  141.3169  167.3748 C.ar    1  UNL1        0.0364
     15 BR        142.8082  142.1201  167.1474 Br      1  UNL1       -0.0491
     16 N         140.6040  143.9638  162.0556 N.ar    1  UNL1       -0.0811
     17 C         140.3668  144.1286  160.5837 C.ar    1  UNL1        0.2834
     18 N         139.8549  145.5190  160.3495 N.ar    1  UNL1       -0.1841
     19 C         139.7757  146.2135  161.6767 C.ar    1  UNL1        0.2388
     20 N         140.2387  145.2523  162.7311 N.ar    1  UNL1       -0.0785
     21 C         142.6541  139.0187  164.7655 C.2     1  UNL1        0.3431
     22 O         144.0161  139.0177  165.3938 O.2     1  UNL1       -0.2450
     23 O         141.8046  137.7835  164.8146 O.3     1  UNL1       -0.4455
     24 C         139.5957  137.6572  163.4526 C.3     1  UNL1        0.0513
     25 C         141.0550  137.3396  163.5935 C.3     1  UNL1        0.2089
     26 C         143.5297  139.6703  161.9710 C.3     1  UNL1        0.1312
     27 N         143.3421  139.3951  160.5085 N.3     1  UNL1       -0.2624
     28 C         143.8161  140.3902  159.4912 C.3     1  UNL1        0.1049
     29 C         143.6285  140.1149  158.0286 C.3     1  UNL1        0.1595
     30 O         142.9669  138.8445  157.5834 O.3     1  UNL1       -0.3508
     31 C         142.4928  137.8494  158.6008 C.3     1  UNL1        0.1595
     32 C         142.6804  138.1246  160.0633 C.3     1  UNL1        0.1049
@<TRIPOS>BOND
     1    24    25    1
     2    25    23    1
     3    23    21    1
     4    21    22    2
     5    21     1    1
     6     1     2    2
     7     2    26    1
     8    26    27    1
     9    27    28    1
    10    28    29    1
    11    29    30    1
    12    30    31    1
    13    31    32    1
    14     2     3    1
    15     3     4    1
    16     4    16    1
    17    16    17   ar
    18    17    18   ar
    19    18    19   ar
    20    19    20   ar
    21     4     5    2
    22     5     6    1
    23     6     8    1
    24     8     9   ar
    25     9    10   ar
    26    10    11   ar
    27    11    12    1
    28    11    13   ar
    29    13    14   ar
    30    14    15    1
    31     6     1    1
    32    14     8   ar
    33    32    27    1
    34    20    16   ar
    35     3     7    1
@<TRIPOS>MOLECULE
*****
 32 35 0 0 0
SMALL
GASTEIGER

@<TRIPOS>ATOM
      1 C         140.6990  140.6723  164.5740 C.2     1  UNL1        0.1225
      2 C         140.2934  140.4817  163.1426 C.2     1  UNL1        0.1079
      3 N         140.0799  141.6744  162.2584 N.pl3   1  UNL1       -0.2035
      4 C         140.2720  143.0577  162.8056 C.2     1  UNL1        0.4113
      5 N         140.6776  143.2483  164.2371 N.2     1  UNL1       -0.0911
      6 C         140.8911  142.0556  165.1213 C.3     1  UNL1        0.2340
      7 H         139.8137  141.5493  161.3188 H       1  UNL1        0.2512
      8 C         141.2968  142.2462  166.5528 C.ar    1  UNL1        0.0279
      9 C         140.2496  142.4320  167.6106 C.ar    1  UNL1        0.0022
     10 C         140.6552  142.6227  169.0421 C.ar    1  UNL1        0.0295
     11 C         142.1080  142.6275  169.4158 C.ar    1  UNL1        0.1406
     12 F         142.5135  142.8182  170.8472 F       1  UNL1       -0.2042
     13 C         143.1551  142.4417  168.3579 C.ar    1  UNL1        0.0361
     14 C         142.7494  142.2511  166.9264 C.ar    1  UNL1        0.0364
     15 BR        143.7966  142.0653  165.8686 Br      1  UNL1       -0.0491
     16 N         140.0584  144.2504  161.9214 N.ar    1  UNL1       -0.0811
     17 C         139.2613  145.4731  162.2674 C.ar    1  UNL1        0.2834
     18 N         139.3148  146.4082  161.0958 N.ar    1  UNL1       -0.1841
     19 C         140.1450  145.7635  160.0256 C.ar    1  UNL1        0.2388
     20 N         140.6046  144.4299  160.5359 N.ar    1  UNL1       -0.0785
     21 C         140.9125  139.4796  165.4583 C.2     1  UNL1        0.3431
     22 O         142.1472  138.6421  165.3028 O.2     1  UNL1       -0.2450
     23 O         139.8914  139.1243  166.4980 O.3     1  UNL1       -0.4455
     24 C         137.4853  138.3258  167.0666 C.3     1  UNL1        0.0513
     25 C         138.4521  138.9581  166.1096 C.3     1  UNL1        0.2089
     26 C         140.1013  139.0983  162.5953 C.3     1  UNL1        0.1312
     27 N         140.9109  138.6378  161.4195 N.3     1  UNL1       -0.2624
     28 C         142.2399  137.9772  161.6366 C.3     1  UNL1        0.1049
     29 C         143.0495  137.5167  160.4607 C.3     1  UNL1        0.1595
     30 O         142.5300  137.7168  159.0679 O.3     1  UNL1       -0.3508
     31 C         141.2009  138.3774  158.8508 C.3     1  UNL1        0.1595
     32 C         140.3914  138.8379  160.0266 C.3     1  UNL1        0.1049
@<TRIPOS>BOND
     1    24    25    1
     2    25    23    1
     3    23    21    1
     4    21    22    2
     5    21     1    1
     6     1     2    2
     7     2    26    1
     8    26    27    1
     9    27    28    1
    10    28    29    1
    11    29    30    1
    12    30    31    1
    13    31    32    1
    14     2     3    1
    15     3     4    1
    16     4    16    1
    17    16    17   ar
    18    17    18   ar
    19    18    19   ar
    20    19    20   ar
    21     4     5    2
    22     5     6    1
    23     6     8    1
    24     8     9   ar
    25     9    10   ar
    26    10    11   ar
    27    11    12    1
    28    11    13   ar
    29    13    14   ar
    30    14    15    1
    31     6     1    1
    32    14     8   ar
    33    32    27    1
    34    20    16   ar
    35     3     7    1
@<TRIPOS>MOLECULE
*****
 32 35 0 0 0
SMALL
GASTEIGER

@<TRIPOS>ATOM
      1 C         141.4108  139.7013  164.0251 C.2     1  UNL1        0.1225
      2 C         141.6582  139.9279  162.5631 C.2     1  UNL1        0.1079
      3 N         141.2936  141.2405  161.9353 N.pl3   1  UNL1       -0.2035
      4 C         140.6815  142.3265  162.7694 C.2     1  UNL1        0.4113
      5 N         140.4340  142.1000  164.2314 N.2     1  UNL1       -0.0911
      6 C         140.7987  140.7874  164.8592 C.3     1  UNL1        0.2340
      7 H         141.4560  141.3891  160.9757 H       1  UNL1        0.2512
      8 C         140.5512  140.5609  166.3213 C.ar    1  UNL1        0.0279
      9 C         141.5912  140.9548  167.3278 C.ar    1  UNL1        0.0022
     10 C         141.3437  140.7283  168.7898 C.ar    1  UNL1        0.0295
     11 C         140.0562  140.1079  169.2453 C.ar    1  UNL1        0.1406
     12 F         139.8088  139.8814  170.7073 F       1  UNL1       -0.2042
     13 C         139.0162  139.7140  168.2387 C.ar    1  UNL1        0.0361
     14 C         139.2637  139.9405  166.7767 C.ar    1  UNL1        0.0364
     15 BR        138.2236  139.5466  165.7701 Br      1  UNL1       -0.0491
     16 N         140.3168  143.6391  162.1416 N.ar    1  UNL1       -0.0811
     17 C         139.1853  144.5314  162.5578 C.ar    1  UNL1        0.2834
     18 N         139.1888  145.7336  161.6608 N.ar    1  UNL1       -0.1841
     19 C         140.3226  145.5843  160.6900 C.ar    1  UNL1        0.2388
     20 N         141.0197  144.2898  160.9872 N.ar    1  UNL1       -0.0785
     21 C         141.7754  138.3888  164.6529 C.2     1  UNL1        0.3431
     22 O         140.7886  137.2592  164.6563 O.2     1  UNL1       -0.2450
     23 O         143.1269  138.2058  165.2773 O.3     1  UNL1       -0.4455
     24 C         145.0725  139.5008  164.1425 C.3     1  UNL1        0.0513
     25 C         144.1105  139.3383  165.2820 C.3     1  UNL1        0.2089
     26 C         142.2704  138.8418  161.7289 C.3     1  UNL1        0.1312
     27 N         141.7563  138.5796  160.3444 N.3     1  UNL1       -0.2624
     28 C         142.7102  138.2087  159.2479 C.3     1  UNL1        0.1049
     29 C         142.1960  137.9465  157.8633 C.3     1  UNL1        0.1595
     30 O         140.7280  138.0552  157.5753 O.3     1  UNL1       -0.3508
     31 C         139.7740  138.4261  158.6719 C.3     1  UNL1        0.1595
     32 C         140.2881  138.6883  160.0564 C.3     1  UNL1        0.1049
@<TRIPOS>BOND
     1    24    25    1
     2    25    23    1
     3    23    21    1
     4    21    22    2
     5    21     1    1
     6     1     2    2
     7     2    26    1
     8    26    27    1
     9    27    28    1
    10    28    29    1
    11    29    30    1
    12    30    31    1
    13    31    32    1
    14     2     3    1
    15     3     4    1
    16     4    16    1
    17    16    17   ar
    18    17    18   ar
    19    18    19   ar
    20    19    20   ar
    21     4     5    2
    22     5     6    1
    23     6     8    1
    24     8     9   ar
    25     9    10   ar
    26    10    11   ar
    27    11    12    1
    28    11    13   ar
    29    13    14   ar
    30    14    15    1
    31     6     1    1
    32    14     8   ar
    33    32    27    1
    34    20    16   ar
    35     3     7    1
@<TRIPOS>MOLECULE
*****
 32 35 0 0 0
SMALL
GASTEIGER

@<TRIPOS>ATOM
      1 C         142.4152  140.5506  164.2060 C.2     1  UNL1        0.1225
      2 C         142.3751  140.5680  162.7067 C.2     1  UNL1        0.1079
      3 N         141.8010  141.7514  161.9855 N.pl3   1  UNL1       -0.2035
      4 C         141.2671  142.9173  162.7636 C.2     1  UNL1        0.4113
      5 N         141.3072  142.8998  164.2630 N.2     1  UNL1       -0.0911
      6 C         141.8812  141.7165  164.9842 C.3     1  UNL1        0.2340
      7 H         141.7747  141.7628  161.0014 H       1  UNL1        0.2512
      8 C         141.9213  141.6990  166.4836 C.ar    1  UNL1        0.0279
      9 C         143.1243  142.2266  167.2078 C.ar    1  UNL1        0.0022
     10 C         143.1644  142.2092  168.7072 C.ar    1  UNL1        0.0295
     11 C         142.0015  141.6642  169.4823 C.ar    1  UNL1        0.1406
     12 F         142.0416  141.6468  170.9816 F       1  UNL1       -0.2042
     13 C         140.7985  141.1367  168.7580 C.ar    1  UNL1        0.0361
     14 C         140.7585  141.1541  167.2586 C.ar    1  UNL1        0.0364
     15 BR        139.5555  140.6266  166.5344 Br      1  UNL1       -0.0491
     16 N         140.6931  144.1007  162.0424 N.ar    1  UNL1       -0.0811
     17 C         139.7546  145.1167  162.6228 C.ar    1  UNL1        0.2834
     18 N         139.4382  146.1198  161.5533 N.ar    1  UNL1       -0.1841
     19 C         140.1813  145.7237  160.3119 C.ar    1  UNL1        0.2388
     20 N         140.9568  144.4758  160.6142 N.ar    1  UNL1       -0.0785
     21 C         142.9892  139.3672  164.9272 C.2     1  UNL1        0.3431
     22 O         144.4749  139.2319  165.0826 O.2     1  UNL1       -0.2450
     23 O         142.0775  138.3191  165.4931 O.3     1  UNL1       -0.4455
     24 C         139.9917  137.7002  164.0730 C.3     1  UNL1        0.0513
     25 C         141.3658  137.3695  164.5756 C.3     1  UNL1        0.2089
     26 C         142.9090  139.4021  161.9285 C.3     1  UNL1        0.1312
     27 N         142.5414  139.2329  160.4841 N.3     1  UNL1       -0.2624
     28 C         141.2007  138.6726  160.1121 C.3     1  UNL1        0.1049
     29 C         140.8331  138.5034  158.6677 C.3     1  UNL1        0.1595
     30 O         141.8063  138.8945  157.5953 O.3     1  UNL1       -0.3508
     31 C         143.1470  139.4548  157.9674 C.3     1  UNL1        0.1595
     32 C         143.5146  139.6240  159.4117 C.3     1  UNL1        0.1049
@<TRIPOS>BOND
     1    24    25    1
     2    25    23    1
     3    23    21    1
     4    21    22    2
     5    21     1    1
     6     1     2    2
     7     2    26    1
     8    26    27    1
     9    27    28    1
    10    28    29    1
    11    29    30    1
    12    30    31    1
    13    31    32    1
    14     2     3    1
    15     3     4    1
    16     4    16    1
    17    16    17   ar
    18    17    18   ar
    19    18    19   ar
    20    19    20   ar
    21     4     5    2
    22     5     6    1
    23     6     8    1
    24     8     9   ar
    25     9    10   ar
    26    10    11   ar
    27    11    12    1
    28    11    13   ar
    29    13    14   ar
    30    14    15    1
    31     6     1    1
    32    14     8   ar
    33    32    27    1
    34    20    16   ar
    35     3     7    1
@<TRIPOS>MOLECULE
*****
 32 35 0 0 0
SMALL
GASTEIGER

@<TRIPOS>ATOM
      1 C         142.0416  141.6999  164.6355 C.2     1  UNL1        0.1225
      2 C         142.5685  140.6703  165.5906 C.2     1  UNL1        0.1079
      3 N         142.2288  140.7568  167.0491 N.pl3   1  UNL1       -0.2035
      4 C         141.3623  141.8730  167.5525 C.2     1  UNL1        0.4113
      5 N         140.8355  142.9026  166.5974 N.2     1  UNL1       -0.0911
      6 C         141.1752  142.8160  165.1389 C.3     1  UNL1        0.2340
      7 H         142.5746  140.0810  167.6760 H       1  UNL1        0.2512
      8 C         140.6483  143.8457  164.1837 C.ar    1  UNL1        0.0279
      9 C         141.5398  144.9552  163.7101 C.ar    1  UNL1        0.0022
     10 C         141.0130  145.9848  162.7551 C.ar    1  UNL1        0.0295
     11 C         139.5946  145.9051  162.2735 C.ar    1  UNL1        0.1406
     12 F         139.0678  146.9348  161.3184 F       1  UNL1       -0.2042
     13 C         138.7031  144.7957  162.7471 C.ar    1  UNL1        0.0361
     14 C         139.2299  143.7660  163.7023 C.ar    1  UNL1        0.0364
     15 BR        138.3384  142.6565  164.1759 Br      1  UNL1       -0.0491
     16 N         141.0227  141.9595  169.0110 N.ar    1  UNL1       -0.0811
     17 C         140.2347  143.0529  169.6694 C.ar    1  UNL1        0.2834
     18 N         140.1364  142.7370  171.1325 N.ar    1  UNL1       -0.1841
     19 C         140.8637  141.4483  171.3783 C.ar    1  UNL1        0.2388
     20 N         141.4114  140.9678  170.0671 N.ar    1  UNL1       -0.0785
     21 C         142.3813  141.6134  163.1770 C.2     1  UNL1        0.3431
     22 O         143.7261  142.0673  162.6919 O.2     1  UNL1       -0.2450
     23 O         141.3761  141.0729  162.2037 O.3     1  UNL1       -0.4455
     24 C         140.8340  142.8536  160.3912 C.3     1  UNL1        0.0513
     25 C         141.4035  141.5191  160.7719 C.3     1  UNL1        0.2089
     26 C         143.4350  139.5541  165.0873 C.3     1  UNL1        0.1312
     27 N         143.0103  138.7564  163.8901 N.3     1  UNL1       -0.2624
     28 C         143.9266  138.6307  162.7091 C.3     1  UNL1        0.1049
     29 C         143.5019  137.8330  161.5119 C.3     1  UNL1        0.1595
     30 O         142.1610  137.1610  161.4956 O.3     1  UNL1       -0.3508
     31 C         141.2447  137.2866  162.6766 C.3     1  UNL1        0.1595
     32 C         141.6694  138.0843  163.8738 C.3     1  UNL1        0.1049
@<TRIPOS>BOND
     1    24    25    1
     2    25    23    1
     3    23    21    1
     4    21    22    2
     5    21     1    1
     6     1     2    2
     7     2    26    1
     8    26    27    1
     9    27    28    1
    10    28    29    1
    11    29    30    1
    12    30    31    1
    13    31    32    1
    14     2     3    1
    15     3     4    1
    16     4    16    1
    17    16    17   ar
    18    17    18   ar
    19    18    19   ar
    20    19    20   ar
    21     4     5    2
    22     5     6    1
    23     6     8    1
    24     8     9   ar
    25     9    10   ar
    26    10    11   ar
    27    11    12    1
    28    11    13   ar
    29    13    14   ar
    30    14    15    1
    31     6     1    1
    32    14     8   ar
    33    32    27    1
    34    20    16   ar
    35     3     7    1
@<TRIPOS>MOLECULE
*****
 32 35 0 0 0
SMALL
GASTEIGER

@<TRIPOS>ATOM
      1 C         139.1858  141.6316  160.6741 C.2     1  UNL1        0.1225
      2 C         139.3386  141.0870  159.2849 C.2     1  UNL1        0.1079
      3 N         139.5576  142.0220  158.1326 N.pl3   1  UNL1       -0.2035
      4 C         139.6238  143.5017  158.3695 C.2     1  UNL1        0.4113
      5 N         139.4710  144.0463  159.7588 N.2     1  UNL1       -0.0911
      6 C         139.2520  143.1113  160.9110 C.3     1  UNL1        0.2340
      7 H         139.6579  141.6645  157.2208 H       1  UNL1        0.2512
      8 C         139.0992  143.6560  162.3003 C.ar    1  UNL1        0.0279
      9 C         137.7419  143.7200  162.9357 C.ar    1  UNL1        0.0022
     10 C         137.5891  144.2647  164.3249 C.ar    1  UNL1        0.0295
     11 C         138.7936  144.7454  165.0788 C.ar    1  UNL1        0.1406
     12 F         138.6408  145.2900  166.4680 F       1  UNL1       -0.2042
     13 C         140.1509  144.6813  164.4434 C.ar    1  UNL1        0.0361
     14 C         140.3036  144.1366  163.0541 C.ar    1  UNL1        0.0364
     15 BR        141.6609  144.0726  162.4187 Br      1  UNL1       -0.0491
     16 N         139.8427  144.4367  157.2172 N.ar    1  UNL1       -0.0811
     17 C         139.8490  144.0603  155.7653 C.ar    1  UNL1        0.2834
     18 N         140.1040  145.3033  154.9652 N.ar    1  UNL1       -0.1841
     19 C         140.2553  146.4479  155.9228 C.ar    1  UNL1        0.2388
     20 N         140.0938  145.9123  157.3146 N.ar    1  UNL1       -0.0785
     21 C         138.9669  140.6966  161.8264 C.2     1  UNL1        0.3431
     22 O         137.5723  140.3530  162.2589 O.2     1  UNL1       -0.2450
     23 O         140.1424  140.1052  162.5462 O.3     1  UNL1       -0.4455
     24 C         139.6305  140.9163  164.9608 C.3     1  UNL1        0.0513
     25 C         140.6063  140.7020  163.8419 C.3     1  UNL1        0.2089
     26 C         139.2724  139.6072  159.0479 C.3     1  UNL1        0.1312
     27 N         140.5189  138.8459  158.7065 N.3     1  UNL1       -0.2624
     28 C         140.6165  138.1134  157.4011 C.3     1  UNL1        0.1049
     29 C         141.8631  137.3520  157.0597 C.3     1  UNL1        0.1595
     30 O         143.0119  137.3232  158.0237 O.3     1  UNL1       -0.3508
     31 C         142.9143  138.0556  159.3290 C.3     1  UNL1        0.1595
     32 C         141.6679  138.8170  159.6705 C.3     1  UNL1        0.1049
@<TRIPOS>BOND
     1    24    25    1
     2    25    23    1
     3    23    21    1
     4    21    22    2
     5    21     1    1
     6     1     2    2
     7     2    26    1
     8    26    27    1
     9    27    28    1
    10    28    29    1
    11    29    30    1
    12    30    31    1
    13    31    32    1
    14     2     3    1
    15     3     4    1
    16     4    16    1
    17    16    17   ar
    18    17    18   ar
    19    18    19   ar
    20    19    20   ar
    21     4     5    2
    22     5     6    1
    23     6     8    1
    24     8     9   ar
    25     9    10   ar
    26    10    11   ar
    27    11    12    1
    28    11    13   ar
    29    13    14   ar
    30    14    15    1
    31     6     1    1
    32    14     8   ar
    33    32    27    1
    34    20    16   ar
    35     3     7    1
@<TRIPOS>MOLECULE
*****
 32 35 0 0 0
SMALL
GASTEIGER

@<TRIPOS>ATOM
      1 C         139.9075  141.2806  161.0142 C.2     1  UNL1        0.1225
      2 C         140.0975  140.5767  159.7034 C.2     1  UNL1        0.1079
      3 N         139.6056  141.2081  158.4348 N.pl3   1  UNL1       -0.2035
      4 C         138.9236  142.5434  158.4771 C.2     1  UNL1        0.4113
      5 N         138.7336  143.2473  159.7879 N.2     1  UNL1       -0.0911
      6 C         139.2256  142.6159  161.0565 C.3     1  UNL1        0.2340
      7 H         139.7303  140.7461  157.5745 H       1  UNL1        0.2512
      8 C         139.0355  143.3199  162.3674 C.ar    1  UNL1        0.0279
      9 C         137.7755  143.1124  163.1544 C.ar    1  UNL1        0.0022
     10 C         137.5855  143.8163  164.4652 C.ar    1  UNL1        0.0295
     11 C         138.6554  144.7278  164.9891 C.ar    1  UNL1        0.1406
     12 F         138.4654  145.4318  166.2999 F       1  UNL1       -0.2042
     13 C         139.9154  144.9353  164.2021 C.ar    1  UNL1        0.0361
     14 C         140.1055  144.2314  162.8913 C.ar    1  UNL1        0.0364
     15 BR        141.3655  144.4389  162.1043 Br      1  UNL1       -0.0491
     16 N         138.4317  143.1748  157.2085 N.ar    1  UNL1       -0.0811
     17 C         137.1736  142.8154  156.4749 C.ar    1  UNL1        0.2834
     18 N         137.0758  143.6949  155.2638 N.ar    1  UNL1       -0.1841
     19 C         138.2734  144.5980  155.2488 C.ar    1  UNL1        0.2388
     20 N         139.1113  144.2766  156.4507 N.ar    1  UNL1       -0.0785
     21 C         140.3995  140.6492  162.2828 C.2     1  UNL1        0.3431
     22 O         141.8424  140.7751  162.6728 O.2     1  UNL1       -0.2450
     23 O         139.4485  139.8919  163.1615 O.3     1  UNL1       -0.4455
     24 C         138.0397  138.1168  161.8910 C.3     1  UNL1        0.0513
     25 C         138.1310  139.4271  162.6154 C.3     1  UNL1        0.2089
     26 C         140.7795  139.2413  159.6611 C.3     1  UNL1        0.1312
     27 N         141.0851  138.5967  158.3416 N.3     1  UNL1       -0.2624
     28 C         142.4682  138.6822  157.7676 C.3     1  UNL1        0.1049
     29 C         142.7738  138.0376  156.4480 C.3     1  UNL1        0.1595
     30 O         141.6962  137.3075  155.7026 O.3     1  UNL1       -0.3508
     31 C         140.3131  137.2220  156.2766 C.3     1  UNL1        0.1595
     32 C         140.0075  137.8666  157.5961 C.3     1  UNL1        0.1049
@<TRIPOS>BOND
     1    24    25    1
     2    25    23    1
     3    23    21    1
     4    21    22    2
     5    21     1    1
     6     1     2    2
     7     2    26    1
     8    26    27    1
     9    27    28    1
    10    28    29    1
    11    29    30    1
    12    30    31    1
    13    31    32    1
    14     2     3    1
    15     3     4    1
    16     4    16    1
    17    16    17   ar
    18    17    18   ar
    19    18    19   ar
    20    19    20   ar
    21     4     5    2
    22     5     6    1
    23     6     8    1
    24     8     9   ar
    25     9    10   ar
    26    10    11   ar
    27    11    12    1
    28    11    13   ar
    29    13    14   ar
    30    14    15    1
    31     6     1    1
    32    14     8   ar
    33    32    27    1
    34    20    16   ar
    35     3     7    1
@<TRIPOS>MOLECULE
*****
 32 35 0 0 0
SMALL
GASTEIGER

@<TRIPOS>ATOM
      1 C         140.7984  139.2612  162.6286 C.2     1  UNL1        0.1225
      2 C         140.7350  139.9757  163.9460 C.2     1  UNL1        0.1079
      3 N         141.3943  141.3135  164.1061 N.pl3   1  UNL1       -0.2035
      4 C         142.1170  141.9368  162.9489 C.2     1  UNL1        0.4113
      5 N         142.1804  141.2223  161.6316 N.2     1  UNL1       -0.0911
      6 C         141.5211  139.8845  161.4714 C.3     1  UNL1        0.2340
      7 H         141.3527  141.7824  164.9708 H       1  UNL1        0.2512
      8 C         141.5845  139.1700  160.1540 C.ar    1  UNL1        0.0279
      9 C         140.5499  139.4423  159.1026 C.ar    1  UNL1        0.0022
     10 C         140.6133  138.7278  157.7852 C.ar    1  UNL1        0.0295
     11 C         141.7114  137.7411  157.5192 C.ar    1  UNL1        0.1406
     12 F         141.7748  137.0267  156.2018 F       1  UNL1       -0.2042
     13 C         142.7460  137.4689  158.5706 C.ar    1  UNL1        0.0361
     14 C         142.6826  138.1834  159.8880 C.ar    1  UNL1        0.0364
     15 BR        143.7172  137.9112  160.9394 Br      1  UNL1       -0.0491
     16 N         142.7763  143.2746  163.1091 N.ar    1  UNL1       -0.0811
     17 C         143.8764  143.8239  162.2501 C.ar    1  UNL1        0.2834
     18 N         144.2312  145.1868  162.7664 N.ar    1  UNL1       -0.1841
     19 C         143.3503  145.4798  163.9446 C.ar    1  UNL1        0.2388
     20 N         142.4511  144.2981  164.1564 N.ar    1  UNL1       -0.0785
     21 C         140.1392  137.9234  162.4685 C.2     1  UNL1        0.3431
     22 O         140.8137  136.6880  162.9868 O.2     1  UNL1       -0.2450
     23 O         138.8053  137.8210  161.7901 O.3     1  UNL1       -0.4455
     24 C         137.4259  139.7543  160.7366 C.3     1  UNL1        0.0513
     25 C         137.8050  138.9299  161.9311 C.3     1  UNL1        0.2089
     26 C         140.0123  139.3524  165.1033 C.3     1  UNL1        0.1312
     27 N         140.5210  139.5514  166.5003 N.3     1  UNL1       -0.2624
     28 C         141.9738  139.3386  166.8069 C.3     1  UNL1        0.1049
     29 C         142.4824  139.5376  168.2040 C.3     1  UNL1        0.1595
     30 O         141.5383  139.9495  169.2943 O.3     1  UNL1       -0.3508
     31 C         140.0855  140.1624  168.9877 C.3     1  UNL1        0.1595
     32 C         139.5768  139.9633  167.5907 C.3     1  UNL1        0.1049
@<TRIPOS>BOND
     1    24    25    1
     2    25    23    1
     3    23    21    1
     4    21    22    2
     5    21     1    1
     6     1     2    2
     7     2    26    1
     8    26    27    1
     9    27    28    1
    10    28    29    1
    11    29    30    1
    12    30    31    1
    13    31    32    1
    14     2     3    1
    15     3     4    1
    16     4    16    1
    17    16    17   ar
    18    17    18   ar
    19    18    19   ar
    20    19    20   ar
    21     4     5    2
    22     5     6    1
    23     6     8    1
    24     8     9   ar
    25     9    10   ar
    26    10    11   ar
    27    11    12    1
    28    11    13   ar
    29    13    14   ar
    30    14    15    1
    31     6     1    1
    32    14     8   ar
    33    32    27    1
    34    20    16   ar
    35     3     7    1
@<TRIPOS>MOLECULE
*****
 32 35 0 0 0
SMALL
GASTEIGER

@<TRIPOS>ATOM
      1 C         141.9406  143.5694  160.1121 C.2     1  UNL1        0.1225
      2 C         142.7639  143.6410  158.8603 C.2     1  UNL1        0.1079
      3 N         142.2900  144.4607  157.6969 N.pl3   1  UNL1       -0.2035
      4 C         140.9928  145.2087  157.7853 C.2     1  UNL1        0.4113
      5 N         140.1696  145.1370  159.0371 N.2     1  UNL1       -0.0911
      6 C         140.6435  144.3173  160.2005 C.3     1  UNL1        0.2340
      7 H         142.8303  144.5077  156.8753 H       1  UNL1        0.2512
      8 C         139.8202  144.2457  161.4524 C.ar    1  UNL1        0.0279
      9 C         140.0800  145.2039  162.5768 C.ar    1  UNL1        0.0022
     10 C         139.2568  145.1322  163.8286 C.ar    1  UNL1        0.0295
     11 C         138.1736  144.1024  163.9561 C.ar    1  UNL1        0.1406
     12 F         137.3503  144.0307  165.2079 F       1  UNL1       -0.2042
     13 C         137.9137  143.1442  162.8316 C.ar    1  UNL1        0.0361
     14 C         138.7370  143.2158  161.5798 C.ar    1  UNL1        0.0364
     15 BR        138.4772  142.2576  160.4553 Br      1  UNL1       -0.0491
     16 N         140.5189  146.0283  156.6218 N.ar    1  UNL1       -0.0811
     17 C         141.0982  146.0130  155.2383 C.ar    1  UNL1        0.2834
     18 N         140.3198  146.9825  154.3991 N.ar    1  UNL1       -0.1841
     19 C         139.2593  147.5969  155.2639 C.ar    1  UNL1        0.2388
     20 N         139.3824  147.0072  156.6376 N.ar    1  UNL1       -0.0785
     21 C         142.4146  142.7497  161.2755 C.2     1  UNL1        0.3431
     22 O         141.7908  141.4148  161.5561 O.2     1  UNL1       -0.2450
     23 O         143.5123  143.2650  162.1584 O.3     1  UNL1       -0.4455
     24 C         143.4827  145.1313  163.9656 C.3     1  UNL1        0.0513
     25 C         143.2022  143.7161  163.5549 C.3     1  UNL1        0.2089
     26 C         144.0611  142.8930  158.7719 C.3     1  UNL1        0.1312
     27 N         144.1472  141.6342  157.9609 N.3     1  UNL1       -0.2624
     28 C         143.2154  140.4936  158.2453 C.3     1  UNL1        0.1049
     29 C         143.3015  139.2346  157.4342 C.3     1  UNL1        0.1595
     30 O         144.3194  139.1163  156.3388 O.3     1  UNL1       -0.3508
     31 C         145.2512  140.2569  156.0544 C.3     1  UNL1        0.1595
     32 C         145.1651  141.5158  156.8654 C.3     1  UNL1        0.1049
@<TRIPOS>BOND
     1    24    25    1
     2    25    23    1
     3    23    21    1
     4    21    22    2
     5    21     1    1
     6     1     2    2
     7     2    26    1
     8    26    27    1
     9    27    28    1
    10    28    29    1
    11    29    30    1
    12    30    31    1
    13    31    32    1
    14     2     3    1
    15     3     4    1
    16     4    16    1
    17    16    17   ar
    18    17    18   ar
    19    18    19   ar
    20    19    20   ar
    21     4     5    2
    22     5     6    1
    23     6     8    1
    24     8     9   ar
    25     9    10   ar
    26    10    11   ar
    27    11    12    1
    28    11    13   ar
    29    13    14   ar
    30    14    15    1
    31     6     1    1
    32    14     8   ar
    33    32    27    1
    34    20    16   ar
    35     3     7    1
