@<TRIPOS>MOLECULE
*****
 40 44 0 0 0
SMALL
GASTEIGER

@<TRIPOS>ATOM
      1 N         139.3186  139.9923  163.6669 N.am    1  UNL1       -0.2655
      2 C         139.6384  140.4978  165.0424 C.2     1  UNL1        0.3076
      3 O         139.8555  141.9644  165.2708 O.2     1  UNL1       -0.2522
      4 N         139.7411  139.5369  166.1896 N.am    1  UNL1       -0.2681
      5 H         139.5986  138.5743  166.0397 H       1  UNL1        0.1564
      6 C         140.0609  140.0425  167.5652 C.ar    1  UNL1        0.0517
      7 C         139.0145  140.0069  168.6394 C.ar    1  UNL1        0.0170
      8 C         139.3343  140.5125  170.0149 C.ar    1  UNL1        0.0309
      9 C         140.7004  141.0537  170.3162 C.ar    1  UNL1        0.1441
     10 F         141.0202  141.5593  171.6918 F       1  UNL1       -0.2042
     11 C         141.7467  141.0893  169.2420 C.ar    1  UNL1        0.1000
     12 C         141.4270  140.5837  167.8665 C.ar    1  UNL1        0.0208
     13 C         143.1129  141.6305  169.5434 C.3     1  UNL1        0.4207
     14 F         144.4789  142.1718  169.8448 F       1  UNL1       -0.1658
     15 F         142.7630  142.9067  168.8372 F       1  UNL1       -0.1658
     16 F         143.4627  140.3543  170.2497 F       1  UNL1       -0.1658
     17 C         139.2159  140.9532  162.5197 C.3     1  UNL1        0.0771
     18 C         137.9553  141.5870  162.0107 C.3     1  UNL1        0.0202
     19 C         138.3160  142.4746  160.8565 C.3     1  UNL1        0.0058
     20 C         139.7996  142.3894  160.6523 C.3     1  UNL1        0.0206
     21 C         141.2721  142.1062  160.6910 C.3     1  UNL1        0.0061
     22 C         140.3557  141.4491  161.6802 C.3     1  UNL1        0.0223
     23 C         139.8526  143.3361  159.4901 C.ar    1  UNL1       -0.0227
     24 C         139.3533  142.9004  158.1443 C.ar    1  UNL1       -0.0036
     25 C         139.4062  143.8471  156.9822 C.ar    1  UNL1        0.0100
     26 C         139.9585  145.2297  157.1656 C.ar    1  UNL1        0.0684
     27 C         140.4578  145.6654  158.5113 C.ar    1  UNL1        0.0100
     28 C         140.4049  144.7187  159.6735 C.ar    1  UNL1       -0.0036
     29 C         140.0115  146.1765  156.0034 C.1     1  UNL1        0.1004
     30 N         140.0644  147.1233  154.8411 N.1     1  UNL1       -0.1908
     31 C         139.1015  138.5257  163.4385 C.3     1  UNL1        0.0963
     32 C         140.1331  137.7200  162.7060 C.3     1  UNL1        0.0389
     33 C         141.4432  137.4029  163.3640 C.3     1  UNL1        0.0739
     34 C         145.7614  141.5614  163.6092 C.3     1  UNL1        0.0897
     35 N         144.6819  140.5217  163.5479 N.3     1  UNL1       -0.2691
     36 C         144.1580  140.0619  162.2197 C.3     1  UNL1        0.0897
     37 C         143.0784  139.0223  162.1584 C.3     1  UNL1        0.0897
     38 N         142.5228  138.4425  163.4253 N.3     1  UNL1       -0.2703
     39 C         143.0467  138.9023  164.7534 C.3     1  UNL1        0.0897
     40 C         144.1262  139.9419  164.8147 C.3     1  UNL1        0.0897
@<TRIPOS>BOND
     1    34    35    1
     2    35    36    1
     3    36    37    1
     4    37    38    1
     5    38    33    1
     6    33    32    1
     7    32    31    1
     8    31     1    1
     9     1     2   am
    10     2     3    2
    11     2     4   am
    12     4     6    1
    13     6     7   ar
    14     7     8   ar
    15     8     9   ar
    16     9    10    1
    17     9    11   ar
    18    11    13    1
    19    13    14    1
    20    13    15    1
    21    13    16    1
    22    11    12   ar
    23    17     1    1
    24    17    18    1
    25    18    19    1
    26    19    20    1
    27    20    23    1
    28    23    24   ar
    29    24    25   ar
    30    25    26   ar
    31    26    29    1
    32    29    30    3
    33    26    27   ar
    34    27    28   ar
    35    20    21    1
    36    22    21    1
    37    38    39    1
    38    39    40    1
    39    40    35    1
    40    12     6   ar
    41    22    17    1
    42    22    20    1
    43    28    23   ar
    44     4     5    1
@<TRIPOS>MOLECULE
*****
 40 44 0 0 0
SMALL
GASTEIGER

@<TRIPOS>ATOM
      1 N         139.5420  140.2127  160.6749 N.am    1  UNL1       -0.2655
      2 C         139.0695  141.3186  159.7785 C.2     1  UNL1        0.3076
      3 O         138.5212  142.5826  160.3717 O.2     1  UNL1       -0.2522
      4 N         139.1453  141.1607  158.2887 N.am    1  UNL1       -0.2681
      5 H         139.5052  140.3312  157.8993 H       1  UNL1        0.1564
      6 C         138.6728  142.2667  157.3923 C.ar    1  UNL1        0.0517
      7 C         137.2959  142.2150  156.7993 C.ar    1  UNL1        0.0170
      8 C         136.8234  143.3210  155.9029 C.ar    1  UNL1        0.0309
      9 C         137.7277  144.4786  155.5995 C.ar    1  UNL1        0.1441
     10 F         137.2552  145.5846  154.7030 F       1  UNL1       -0.2042
     11 C         139.1045  144.5302  156.1924 C.ar    1  UNL1        0.1000
     12 C         139.5771  143.4243  157.0888 C.ar    1  UNL1        0.0208
     13 C         140.0089  145.6879  155.8889 C.3     1  UNL1        0.4207
     14 F         140.9132  146.8455  155.5854 F       1  UNL1       -0.1658
     15 F         140.3941  145.0462  154.5890 F       1  UNL1       -0.1658
     16 F         139.6237  146.3297  157.1888 F       1  UNL1       -0.1658
     17 C         139.4663  140.3706  162.1646 C.3     1  UNL1        0.0771
     18 C         138.3843  139.8341  163.0542 C.3     1  UNL1        0.0202
     19 C         138.7085  140.2247  164.4657 C.3     1  UNL1        0.0058
     20 C         139.9909  141.0026  164.4485 C.3     1  UNL1        0.0206
     21 C         141.2610  141.7307  164.1219 C.3     1  UNL1        0.0061
     22 C         140.4592  141.0928  163.0263 C.3     1  UNL1        0.0223
     23 C         140.0496  141.2410  165.9282 C.ar    1  UNL1       -0.0227
     24 C         139.5878  140.1761  166.8784 C.ar    1  UNL1       -0.0036
     25 C         139.6465  140.4145  168.3581 C.ar    1  UNL1        0.0100
     26 C         140.1670  141.7177  168.8878 C.ar    1  UNL1        0.0684
     27 C         140.6289  142.7827  167.9376 C.ar    1  UNL1        0.0100
     28 C         140.5702  142.5443  166.4578 C.ar    1  UNL1       -0.0036
     29 C         140.2258  141.9562  170.3675 C.1     1  UNL1        0.1004
     30 N         140.2844  142.1947  171.8473 N.1     1  UNL1       -0.1908
     31 C         140.0903  138.9488  160.0816 C.3     1  UNL1        0.0963
     32 C         141.5736  138.7496  159.9806 C.3     1  UNL1        0.0389
     33 C         142.2561  137.7405  160.8557 C.3     1  UNL1        0.0739
     34 C         143.0240  138.8678  166.6986 C.3     1  UNL1        0.0897
     35 N         142.8320  138.5860  165.2379 N.3     1  UNL1       -0.2691
     36 C         143.8250  139.1000  164.2381 C.3     1  UNL1        0.0897
     37 C         143.6331  138.8182  162.7773 C.3     1  UNL1        0.0897
     38 N         142.4481  138.0223  162.3164 N.3     1  UNL1       -0.2703
     39 C         141.4551  137.5083  163.3163 C.3     1  UNL1        0.0897
     40 C         141.6471  137.7901  164.7770 C.3     1  UNL1        0.0897
@<TRIPOS>BOND
     1    34    35    1
     2    35    36    1
     3    36    37    1
     4    37    38    1
     5    38    33    1
     6    33    32    1
     7    32    31    1
     8    31     1    1
     9     1     2   am
    10     2     3    2
    11     2     4   am
    12     4     6    1
    13     6     7   ar
    14     7     8   ar
    15     8     9   ar
    16     9    10    1
    17     9    11   ar
    18    11    13    1
    19    13    14    1
    20    13    15    1
    21    13    16    1
    22    11    12   ar
    23    17     1    1
    24    17    18    1
    25    18    19    1
    26    19    20    1
    27    20    23    1
    28    23    24   ar
    29    24    25   ar
    30    25    26   ar
    31    26    29    1
    32    29    30    3
    33    26    27   ar
    34    27    28   ar
    35    20    21    1
    36    22    21    1
    37    38    39    1
    38    39    40    1
    39    40    35    1
    40    12     6   ar
    41    22    17    1
    42    22    20    1
    43    28    23   ar
    44     4     5    1
@<TRIPOS>MOLECULE
*****
 40 44 0 0 0
SMALL
GASTEIGER

@<TRIPOS>ATOM
      1 N         139.1062  140.3362  160.7408 N.am    1  UNL1       -0.2655
      2 C         138.7374  141.4463  159.8019 C.2     1  UNL1        0.3076
      3 O         138.3356  142.7856  160.3450 O.2     1  UNL1       -0.2522
      4 N         138.7703  141.2172  158.3198 N.am    1  UNL1       -0.2681
      5 H         139.0340  140.3382  157.9634 H       1  UNL1        0.1564
      6 C         138.4015  142.3274  157.3809 C.ar    1  UNL1        0.0517
      7 C         137.0704  142.3137  156.6895 C.ar    1  UNL1        0.0170
      8 C         136.7015  143.4239  155.7506 C.ar    1  UNL1        0.0309
      9 C         137.6637  144.5476  155.5032 C.ar    1  UNL1        0.1441
     10 F         137.2948  145.6578  154.5642 F       1  UNL1       -0.2042
     11 C         138.9948  144.5613  156.1946 C.ar    1  UNL1        0.1000
     12 C         139.3636  143.4512  157.1335 C.ar    1  UNL1        0.0208
     13 C         139.9570  145.6852  155.9471 C.3     1  UNL1        0.4207
     14 F         140.9191  146.8089  155.6995 F       1  UNL1       -0.1658
     15 F         140.2201  145.1561  154.5684 F       1  UNL1       -0.1658
     16 F         139.6938  146.2142  157.3258 F       1  UNL1       -0.1658
     17 C         139.0733  140.5654  162.2228 C.3     1  UNL1        0.0771
     18 C         137.8467  140.5769  163.0861 C.3     1  UNL1        0.0202
     19 C         138.2765  140.8419  164.4986 C.3     1  UNL1        0.0058
     20 C         139.7687  140.9940  164.5083 C.3     1  UNL1        0.0206
     21 C         141.2352  141.0952  164.2095 C.3     1  UNL1        0.0061
     22 C         140.2611  140.8231  163.1017 C.3     1  UNL1        0.0223
     23 C         139.8920  141.2378  165.9831 C.ar    1  UNL1       -0.0227
     24 C         139.5223  140.1570  166.9555 C.ar    1  UNL1       -0.0036
     25 C         139.6455  140.4008  168.4303 C.ar    1  UNL1        0.0100
     26 C         140.1384  141.7253  168.9330 C.ar    1  UNL1        0.0684
     27 C         140.5082  142.8061  167.9607 C.ar    1  UNL1        0.0100
     28 C         140.3849  142.5624  166.4858 C.ar    1  UNL1       -0.0036
     29 C         140.2617  141.9692  170.4079 C.1     1  UNL1        0.1004
     30 N         140.3851  142.2131  171.8828 N.1     1  UNL1       -0.1908
     31 C         139.5080  138.9969  160.1977 C.3     1  UNL1        0.0963
     32 C         140.9116  138.7724  159.7184 C.3     1  UNL1        0.0389
     33 C         141.9197  138.1299  160.6244 C.3     1  UNL1        0.0739
     34 C         145.7901  141.5322  163.6975 C.3     1  UNL1        0.0897
     35 N         144.8225  140.6816  162.9292 N.3     1  UNL1       -0.2691
     36 C         144.2726  141.1665  161.6206 C.3     1  UNL1        0.0897
     37 C         143.3050  140.3159  160.8523 C.3     1  UNL1        0.0897
     38 N         142.8873  138.9805  161.3927 N.3     1  UNL1       -0.2703
     39 C         143.4371  138.4956  162.7013 C.3     1  UNL1        0.0897
     40 C         144.4047  139.3462  163.4696 C.3     1  UNL1        0.0897
@<TRIPOS>BOND
     1    34    35    1
     2    35    36    1
     3    36    37    1
     4    37    38    1
     5    38    33    1
     6    33    32    1
     7    32    31    1
     8    31     1    1
     9     1     2   am
    10     2     3    2
    11     2     4   am
    12     4     6    1
    13     6     7   ar
    14     7     8   ar
    15     8     9   ar
    16     9    10    1
    17     9    11   ar
    18    11    13    1
    19    13    14    1
    20    13    15    1
    21    13    16    1
    22    11    12   ar
    23    17     1    1
    24    17    18    1
    25    18    19    1
    26    19    20    1
    27    20    23    1
    28    23    24   ar
    29    24    25   ar
    30    25    26   ar
    31    26    29    1
    32    29    30    3
    33    26    27   ar
    34    27    28   ar
    35    20    21    1
    36    22    21    1
    37    38    39    1
    38    39    40    1
    39    40    35    1
    40    12     6   ar
    41    22    17    1
    42    22    20    1
    43    28    23   ar
    44     4     5    1
@<TRIPOS>MOLECULE
*****
 40 44 0 0 0
SMALL
GASTEIGER

@<TRIPOS>ATOM
      1 N         141.9353  143.4560  160.4968 N.am    1  UNL1       -0.2655
      2 C         140.8823  143.9352  159.5421 C.2     1  UNL1        0.3076
      3 O         139.4692  144.1146  160.0123 O.2     1  UNL1       -0.2522
      4 N         141.2423  144.2350  158.1171 N.am    1  UNL1       -0.2681
      5 H         142.1697  144.1172  157.8085 H       1  UNL1        0.1564
      6 C         140.1892  144.7142  157.1624 C.ar    1  UNL1        0.0517
      7 C         139.2714  143.7287  156.5017 C.ar    1  UNL1        0.0170
      8 C         138.2184  144.2079  155.5470 C.ar    1  UNL1        0.0309
      9 C         138.0831  145.6726  155.2531 C.ar    1  UNL1        0.1441
     10 F         137.0300  146.1518  154.2984 F       1  UNL1       -0.2042
     11 C         139.0008  146.6580  155.9138 C.ar    1  UNL1        0.1000
     12 C         140.0538  146.1789  156.8685 C.ar    1  UNL1        0.0208
     13 C         138.8654  148.1228  155.6199 C.3     1  UNL1        0.4207
     14 F         138.7301  149.5874  155.3260 F       1  UNL1       -0.1658
     15 F         138.4927  148.3754  157.0507 F       1  UNL1       -0.1658
     16 F         139.2381  147.8701  154.1891 F       1  UNL1       -0.1658
     17 C         141.5753  143.1561  161.9217 C.3     1  UNL1        0.0771
     18 C         141.6393  144.1204  163.0689 C.3     1  UNL1        0.0202
     19 C         141.1916  143.3997  164.3059 C.3     1  UNL1        0.0058
     20 C         140.8510  141.9899  163.9232 C.3     1  UNL1        0.0206
     21 C         140.5927  140.6732  163.2526 C.3     1  UNL1        0.0061
     22 C         141.0881  141.8394  162.4497 C.3     1  UNL1        0.0223
     23 C         140.4574  141.5443  165.3003 C.ar    1  UNL1       -0.0227
     24 C         140.8422  142.3676  166.4937 C.ar    1  UNL1       -0.0036
     25 C         140.4486  141.9221  167.8708 C.ar    1  UNL1        0.0100
     26 C         139.6701  140.6532  168.0546 C.ar    1  UNL1        0.0684
     27 C         139.2852  139.8298  166.8613 C.ar    1  UNL1        0.0100
     28 C         139.6788  140.2754  165.4841 C.ar    1  UNL1       -0.0036
     29 C         139.2764  140.2076  169.4317 C.1     1  UNL1        0.1004
     30 N         138.8829  139.7619  170.8089 N.1     1  UNL1       -0.1908
     31 C         143.3484  143.2765  160.0265 C.3     1  UNL1        0.0963
     32 C         144.0537  141.9720  160.2515 C.3     1  UNL1        0.0389
     33 C         144.9859  141.8144  161.4160 C.3     1  UNL1        0.0739
     34 C         143.1853  138.8686  166.3231 C.3     1  UNL1        0.0897
     35 N         143.6354  139.6050  165.0963 N.3     1  UNL1       -0.2691
     36 C         144.0607  141.0399  165.1967 C.3     1  UNL1        0.0897
     37 C         144.5109  141.7764  163.9699 C.3     1  UNL1        0.0897
     38 N         144.5358  141.0779  162.6428 N.3     1  UNL1       -0.2703
     39 C         144.1105  139.6430  162.5423 C.3     1  UNL1        0.0897
     40 C         143.6603  138.9066  163.7691 C.3     1  UNL1        0.0897
@<TRIPOS>BOND
     1    34    35    1
     2    35    36    1
     3    36    37    1
     4    37    38    1
     5    38    33    1
     6    33    32    1
     7    32    31    1
     8    31     1    1
     9     1     2   am
    10     2     3    2
    11     2     4   am
    12     4     6    1
    13     6     7   ar
    14     7     8   ar
    15     8     9   ar
    16     9    10    1
    17     9    11   ar
    18    11    13    1
    19    13    14    1
    20    13    15    1
    21    13    16    1
    22    11    12   ar
    23    17     1    1
    24    17    18    1
    25    18    19    1
    26    19    20    1
    27    20    23    1
    28    23    24   ar
    29    24    25   ar
    30    25    26   ar
    31    26    29    1
    32    29    30    3
    33    26    27   ar
    34    27    28   ar
    35    20    21    1
    36    22    21    1
    37    38    39    1
    38    39    40    1
    39    40    35    1
    40    12     6   ar
    41    22    17    1
    42    22    20    1
    43    28    23   ar
    44     4     5    1
@<TRIPOS>MOLECULE
*****
 40 44 0 0 0
SMALL
GASTEIGER

@<TRIPOS>ATOM
      1 N         142.6191  143.3067  160.3628 N.am    1  UNL1       -0.2655
      2 C         141.4967  143.8228  159.5120 C.2     1  UNL1        0.3076
      3 O         140.2673  144.3914  160.1564 O.2     1  UNL1       -0.2522
      4 N         141.6037  143.7702  158.0167 N.am    1  UNL1       -0.2681
      5 H         142.4106  143.3969  157.5938 H       1  UNL1        0.1564
      6 C         140.4812  144.2862  157.1659 C.ar    1  UNL1        0.0517
      7 C         139.4494  143.3385  156.6301 C.ar    1  UNL1        0.0170
      8 C         138.3270  143.8545  155.7793 C.ar    1  UNL1        0.0309
      9 C         138.2364  145.3182  155.4643 C.ar    1  UNL1        0.1441
     10 F         137.1140  145.8343  154.6135 F       1  UNL1       -0.2042
     11 C         139.2683  146.2660  156.0001 C.ar    1  UNL1        0.1000
     12 C         140.3907  145.7500  156.8509 C.ar    1  UNL1        0.0208
     13 C         139.1777  147.7297  155.6850 C.3     1  UNL1        0.4207
     14 F         139.0872  149.1934  155.3699 F       1  UNL1       -0.1658
     15 F         139.5548  147.4465  154.2611 F       1  UNL1       -0.1658
     16 F         138.8007  148.0130  157.1089 F       1  UNL1       -0.1658
     17 C         142.5121  143.3593  161.8581 C.3     1  UNL1        0.0771
     18 C         142.7918  144.5543  162.7206 C.3     1  UNL1        0.0202
     19 C         142.5592  144.1597  164.1489 C.3     1  UNL1        0.0058
     20 C         142.1357  142.7208  164.1692 C.3     1  UNL1        0.0206
     21 C         141.7438  141.3025  163.8782 C.3     1  UNL1        0.0061
     22 C         142.1066  142.2262  162.7534 C.3     1  UNL1        0.0223
     23 C         141.9851  142.6227  165.6583 C.ar    1  UNL1       -0.0227
     24 C         143.1825  142.3402  166.5164 C.ar    1  UNL1       -0.0036
     25 C         143.0319  142.2421  168.0055 C.ar    1  UNL1        0.0100
     26 C         141.6837  142.4265  168.6367 C.ar    1  UNL1        0.0684
     27 C         140.4862  142.7091  167.7787 C.ar    1  UNL1        0.0100
     28 C         140.6368  142.8072  166.2895 C.ar    1  UNL1       -0.0036
     29 C         141.5330  142.3284  170.1259 C.1     1  UNL1        0.1004
     30 N         141.3823  142.2304  171.6151 N.1     1  UNL1       -0.1908
     31 C         143.8485  142.7381  159.7184 C.3     1  UNL1        0.0963
     32 C         144.0699  141.2546  159.7042 C.3     1  UNL1        0.0389
     33 C         143.0130  140.3438  159.1535 C.3     1  UNL1        0.0739
     34 C         139.0728  137.7385  162.8532 C.3     1  UNL1        0.0897
     35 N         140.0579  138.3898  161.9283 N.3     1  UNL1       -0.2691
     36 C         139.6018  139.4564  160.9773 C.3     1  UNL1        0.0897
     37 C         140.5868  140.1077  160.0524 C.3     1  UNL1        0.0897
     38 N         142.0279  139.6924  160.0784 N.3     1  UNL1       -0.2703
     39 C         142.4840  138.6259  161.0294 C.3     1  UNL1        0.0897
     40 C         141.4990  137.9746  161.9543 C.3     1  UNL1        0.0897
@<TRIPOS>BOND
     1    34    35    1
     2    35    36    1
     3    36    37    1
     4    37    38    1
     5    38    33    1
     6    33    32    1
     7    32    31    1
     8    31     1    1
     9     1     2   am
    10     2     3    2
    11     2     4   am
    12     4     6    1
    13     6     7   ar
    14     7     8   ar
    15     8     9   ar
    16     9    10    1
    17     9    11   ar
    18    11    13    1
    19    13    14    1
    20    13    15    1
    21    13    16    1
    22    11    12   ar
    23    17     1    1
    24    17    18    1
    25    18    19    1
    26    19    20    1
    27    20    23    1
    28    23    24   ar
    29    24    25   ar
    30    25    26   ar
    31    26    29    1
    32    29    30    3
    33    26    27   ar
    34    27    28   ar
    35    20    21    1
    36    22    21    1
    37    38    39    1
    38    39    40    1
    39    40    35    1
    40    12     6   ar
    41    22    17    1
    42    22    20    1
    43    28    23   ar
    44     4     5    1
@<TRIPOS>MOLECULE
*****
 40 44 0 0 0
SMALL
GASTEIGER

@<TRIPOS>ATOM
      1 N         143.6477  139.7775  163.6843 N.am    1  UNL1       -0.2655
      2 C         142.5980  139.9928  164.7339 C.2     1  UNL1        0.3076
      3 O         141.1710  139.6245  164.4541 O.2     1  UNL1       -0.2522
      4 N         142.9752  140.5762  166.0633 N.am    1  UNL1       -0.2681
      5 H         143.9117  140.8179  166.2469 H       1  UNL1        0.1564
      6 C         141.9254  140.7915  167.1129 C.ar    1  UNL1        0.0517
      7 C         140.9943  139.6750  167.4824 C.ar    1  UNL1        0.0170
      8 C         139.9445  139.8902  168.5320 C.ar    1  UNL1        0.0309
      9 C         139.8259  141.2218  169.2121 C.ar    1  UNL1        0.1441
     10 F         138.7761  141.4370  170.2617 F       1  UNL1       -0.2042
     11 C         140.7570  142.3383  168.8426 C.ar    1  UNL1        0.1000
     12 C         141.8067  142.1231  167.7930 C.ar    1  UNL1        0.0208
     13 C         140.6383  143.6700  169.5227 C.3     1  UNL1        0.4207
     14 F         140.5196  145.0016  170.2029 F       1  UNL1       -0.1658
     15 F         141.4597  143.1580  170.6686 F       1  UNL1       -0.1658
     16 F         139.8168  144.1821  168.3769 F       1  UNL1       -0.1658
     17 C         143.2706  139.1941  162.3549 C.3     1  UNL1        0.0771
     18 C         143.9076  138.0034  161.7019 C.3     1  UNL1        0.0202
     19 C         143.2209  137.7723  160.3885 C.3     1  UNL1        0.0058
     20 C         142.1594  138.8201  160.2298 C.3     1  UNL1        0.0206
     21 C         141.1995  139.9664  160.3509 C.3     1  UNL1        0.0061
     22 C         142.1901  139.6988  161.4451 C.3     1  UNL1        0.0223
     23 C         141.6733  138.3494  158.8911 C.ar    1  UNL1       -0.0227
     24 C         142.5861  137.5665  157.9945 C.ar    1  UNL1       -0.0036
     25 C         142.1000  137.0958  156.6559 C.ar    1  UNL1        0.0100
     26 C         140.7011  137.4079  156.2137 C.ar    1  UNL1        0.0684
     27 C         139.7882  138.1909  157.1103 C.ar    1  UNL1        0.0100
     28 C         140.2743  138.6616  158.4490 C.ar    1  UNL1       -0.0036
     29 C         140.2149  136.9373  154.8750 C.1     1  UNL1        0.1004
     30 N         139.7287  136.4665  153.5363 N.1     1  UNL1       -0.1908
     31 C         145.0747  140.1458  163.9641 C.3     1  UNL1        0.0963
     32 C         145.5304  141.5646  163.7933 C.3     1  UNL1        0.0389
     33 C         145.2222  142.3039  162.5250 C.3     1  UNL1        0.0739
     34 C         140.3594  145.8034  162.1986 C.3     1  UNL1        0.0897
     35 N         141.5751  144.9285  162.2802 N.3     1  UNL1       -0.2691
     36 C         141.9417  144.0444  161.1253 C.3     1  UNL1        0.0897
     37 C         143.1574  143.1695  161.2069 C.3     1  UNL1        0.0897
     38 N         144.0065  143.1788  162.4434 N.3     1  UNL1       -0.2703
     39 C         143.6399  144.0629  163.5983 C.3     1  UNL1        0.0897
     40 C         142.4242  144.9378  163.5167 C.3     1  UNL1        0.0897
@<TRIPOS>BOND
     1    34    35    1
     2    35    36    1
     3    36    37    1
     4    37    38    1
     5    38    33    1
     6    33    32    1
     7    32    31    1
     8    31     1    1
     9     1     2   am
    10     2     3    2
    11     2     4   am
    12     4     6    1
    13     6     7   ar
    14     7     8   ar
    15     8     9   ar
    16     9    10    1
    17     9    11   ar
    18    11    13    1
    19    13    14    1
    20    13    15    1
    21    13    16    1
    22    11    12   ar
    23    17     1    1
    24    17    18    1
    25    18    19    1
    26    19    20    1
    27    20    23    1
    28    23    24   ar
    29    24    25   ar
    30    25    26   ar
    31    26    29    1
    32    29    30    3
    33    26    27   ar
    34    27    28   ar
    35    20    21    1
    36    22    21    1
    37    38    39    1
    38    39    40    1
    39    40    35    1
    40    12     6   ar
    41    22    17    1
    42    22    20    1
    43    28    23   ar
    44     4     5    1
@<TRIPOS>MOLECULE
*****
 40 44 0 0 0
SMALL
GASTEIGER

@<TRIPOS>ATOM
      1 N         142.8277  143.1303  160.5289 N.am    1  UNL1       -0.2655
      2 C         141.7963  143.8156  159.6824 C.2     1  UNL1        0.3076
      3 O         140.6733  144.5691  160.3316 O.2     1  UNL1       -0.2522
      4 N         141.8877  143.7473  158.1868 N.am    1  UNL1       -0.2681
      5 H         142.6247  143.2528  157.7607 H       1  UNL1        0.1564
      6 C         140.8562  144.4326  157.3402 C.ar    1  UNL1        0.0517
      7 C         140.9263  145.9156  157.1264 C.ar    1  UNL1        0.0170
      8 C         139.8949  146.6009  156.2800 C.ar    1  UNL1        0.0309
      9 C         138.7935  145.8032  155.6473 C.ar    1  UNL1        0.1441
     10 F         137.7620  146.4884  154.8008 F       1  UNL1       -0.2042
     11 C         138.7234  144.3201  155.8611 C.ar    1  UNL1        0.1000
     12 C         139.7548  143.6348  156.7076 C.ar    1  UNL1        0.0208
     13 C         137.6218  143.5224  155.2284 C.3     1  UNL1        0.4207
     14 F         136.5203  142.7247  154.5957 F       1  UNL1       -0.1658
     15 F         138.2557  143.7145  153.8826 F       1  UNL1       -0.1658
     16 F         136.9879  143.3302  156.5742 F       1  UNL1       -0.1658
     17 C         142.7362  143.1986  162.0246 C.3     1  UNL1        0.0771
     18 C         143.2292  144.3219  162.8877 C.3     1  UNL1        0.0202
     19 C         142.9334  143.9731  164.3163 C.3     1  UNL1        0.0058
     20 C         142.2575  142.6341  164.3361 C.3     1  UNL1        0.0206
     21 C         141.6155  141.3103  164.0444 C.3     1  UNL1        0.0061
     22 C         142.1357  142.1555  162.9197 C.3     1  UNL1        0.0223
     23 C         142.0959  142.5621  165.8255 C.ar    1  UNL1       -0.0227
     24 C         143.2931  142.3325  166.6997 C.ar    1  UNL1       -0.0036
     25 C         143.1315  142.2604  168.1891 C.ar    1  UNL1        0.0100
     26 C         141.7727  142.4179  168.8046 C.ar    1  UNL1        0.0684
     27 C         140.5754  142.6475  167.9305 C.ar    1  UNL1        0.0100
     28 C         140.7370  142.7196  166.4410 C.ar    1  UNL1       -0.0036
     29 C         141.6110  142.3458  170.2941 C.1     1  UNL1        0.1004
     30 N         141.4492  142.2736  171.7837 N.1     1  UNL1       -0.1908
     31 C         143.9506  142.3768  159.8798 C.3     1  UNL1        0.0963
     32 C         143.7121  141.0015  159.3306 C.3     1  UNL1        0.0389
     33 C         143.8225  139.8055  160.2292 C.3     1  UNL1        0.0739
     34 C         138.9355  137.6381  162.9531 C.3     1  UNL1        0.0897
     35 N         140.1573  138.1800  162.2721 N.3     1  UNL1       -0.2691
     36 C         141.5212  137.7545  162.7287 C.3     1  UNL1        0.0897
     37 C         142.7430  138.2964  162.0477 C.3     1  UNL1        0.0897
     38 N         142.6008  139.2637  160.9102 N.3     1  UNL1       -0.2703
     39 C         141.2368  139.6891  160.4536 C.3     1  UNL1        0.0897
     40 C         140.0150  139.1473  161.1346 C.3     1  UNL1        0.0897
@<TRIPOS>BOND
     1    34    35    1
     2    35    36    1
     3    36    37    1
     4    37    38    1
     5    38    33    1
     6    33    32    1
     7    32    31    1
     8    31     1    1
     9     1     2   am
    10     2     3    2
    11     2     4   am
    12     4     6    1
    13     6     7   ar
    14     7     8   ar
    15     8     9   ar
    16     9    10    1
    17     9    11   ar
    18    11    13    1
    19    13    14    1
    20    13    15    1
    21    13    16    1
    22    11    12   ar
    23    17     1    1
    24    17    18    1
    25    18    19    1
    26    19    20    1
    27    20    23    1
    28    23    24   ar
    29    24    25   ar
    30    25    26   ar
    31    26    29    1
    32    29    30    3
    33    26    27   ar
    34    27    28   ar
    35    20    21    1
    36    22    21    1
    37    38    39    1
    38    39    40    1
    39    40    35    1
    40    12     6   ar
    41    22    17    1
    42    22    20    1
    43    28    23   ar
    44     4     5    1
@<TRIPOS>MOLECULE
*****
 40 44 0 0 0
SMALL
GASTEIGER

@<TRIPOS>ATOM
      1 N         141.9810  140.6965  160.3077 N.am    1  UNL1       -0.2655
      2 C         141.6901  139.4558  159.5166 C.2     1  UNL1        0.3076
      3 O         141.0170  138.2876  160.1741 O.2     1  UNL1       -0.2522
      4 N         142.0722  139.3833  158.0679 N.am    1  UNL1       -0.2681
      5 H         142.5139  140.1500  157.6363 H       1  UNL1        0.1564
      6 C         141.7812  138.1425  157.2767 C.ar    1  UNL1        0.0517
      7 C         140.4754  138.0043  156.5517 C.ar    1  UNL1        0.0170
      8 C         140.1844  136.7636  155.7606 C.ar    1  UNL1        0.0309
      9 C         141.1993  135.6611  155.6944 C.ar    1  UNL1        0.1441
     10 F         140.9083  134.4203  154.9032 F       1  UNL1       -0.2042
     11 C         142.5052  135.7993  156.4194 C.ar    1  UNL1        0.1000
     12 C         142.7961  137.0400  157.2105 C.ar    1  UNL1        0.0208
     13 C         143.5201  134.6967  156.3531 C.3     1  UNL1        0.4207
     14 F         144.5349  133.5942  156.2870 F       1  UNL1       -0.1658
     15 F         142.6939  133.8793  157.3013 F       1  UNL1       -0.1658
     16 F         144.3463  135.5142  155.4050 F       1  UNL1       -0.1658
     17 C         141.5989  140.7691  161.7564 C.3     1  UNL1        0.0771
     18 C         140.2088  140.9373  162.2943 C.3     1  UNL1        0.0202
     19 C         140.2905  140.9583  163.7919 C.3     1  UNL1        0.0058
     20 C         141.7312  140.8031  164.1797 C.3     1  UNL1        0.0206
     21 C         143.2198  140.6361  164.2577 C.3     1  UNL1        0.0061
     22 C         142.5398  140.6861  162.9217 C.3     1  UNL1        0.0223
     23 C         141.5018  140.8590  165.6609 C.ar    1  UNL1       -0.0227
     24 C         142.3806  141.7147  166.5243 C.ar    1  UNL1       -0.0036
     25 C         142.1512  141.7706  168.0055 C.ar    1  UNL1        0.0100
     26 C         141.0429  140.9708  168.6235 C.ar    1  UNL1        0.0684
     27 C         140.1640  140.1150  167.7602 C.ar    1  UNL1        0.0100
     28 C         140.3934  140.0591  166.2789 C.ar    1  UNL1       -0.0036
     29 C         140.8134  141.0266  170.1048 C.1     1  UNL1        0.1004
     30 N         140.5840  141.0824  171.5861 N.1     1  UNL1       -0.1908
     31 C         142.6541  141.8648  159.6502 C.3     1  UNL1        0.0963
     32 C         141.9663  143.1969  159.6021 C.3     1  UNL1        0.0389
     33 C         142.2453  144.2237  160.6594 C.3     1  UNL1        0.0739
     34 C         138.5011  144.8378  165.3073 C.3     1  UNL1        0.0897
     35 N         139.4371  144.6842  164.1453 N.3     1  UNL1       -0.2691
     36 C         138.8998  144.6797  162.7449 C.3     1  UNL1        0.0897
     37 C         139.8359  144.5261  161.5829 C.3     1  UNL1        0.0897
     38 N         141.3092  144.3772  161.8214 N.3     1  UNL1       -0.2703
     39 C         141.8466  144.3818  163.2218 C.3     1  UNL1        0.0897
     40 C         140.9105  144.5353  164.3838 C.3     1  UNL1        0.0897
@<TRIPOS>BOND
     1    34    35    1
     2    35    36    1
     3    36    37    1
     4    37    38    1
     5    38    33    1
     6    33    32    1
     7    32    31    1
     8    31     1    1
     9     1     2   am
    10     2     3    2
    11     2     4   am
    12     4     6    1
    13     6     7   ar
    14     7     8   ar
    15     8     9   ar
    16     9    10    1
    17     9    11   ar
    18    11    13    1
    19    13    14    1
    20    13    15    1
    21    13    16    1
    22    11    12   ar
    23    17     1    1
    24    17    18    1
    25    18    19    1
    26    19    20    1
    27    20    23    1
    28    23    24   ar
    29    24    25   ar
    30    25    26   ar
    31    26    29    1
    32    29    30    3
    33    26    27   ar
    34    27    28   ar
    35    20    21    1
    36    22    21    1
    37    38    39    1
    38    39    40    1
    39    40    35    1
    40    12     6   ar
    41    22    17    1
    42    22    20    1
    43    28    23   ar
    44     4     5    1
@<TRIPOS>MOLECULE
*****
 40 44 0 0 0
SMALL
GASTEIGER

@<TRIPOS>ATOM
      1 N         143.3245  139.6136  159.5532 N.am    1  UNL1       -0.2655
      2 C         142.7960  138.3873  158.8701 C.2     1  UNL1        0.3076
      3 O         141.9647  137.4013  159.6363 O.2     1  UNL1       -0.2522
      4 N         143.0988  138.1467  157.4208 N.am    1  UNL1       -0.2681
      5 H         143.6443  138.7938  156.9179 H       1  UNL1        0.1564
      6 C         142.5703  136.9203  156.7377 C.ar    1  UNL1        0.0517
      7 C         141.3186  137.0006  155.9150 C.ar    1  UNL1        0.0170
      8 C         140.7901  135.7742  155.2319 C.ar    1  UNL1        0.0309
      9 C         141.5132  134.4675  155.3716 C.ar    1  UNL1        0.1441
     10 F         140.9847  133.2411  154.6885 F       1  UNL1       -0.2042
     11 C         142.7649  134.3872  156.1943 C.ar    1  UNL1        0.1000
     12 C         143.2934  135.6136  156.8774 C.ar    1  UNL1        0.0208
     13 C         143.4880  133.0804  156.3339 C.3     1  UNL1        0.4207
     14 F         144.2112  131.7737  156.4735 F       1  UNL1       -0.1658
     15 F         143.8150  133.1050  154.8702 F       1  UNL1       -0.1658
     16 F         143.1611  133.0558  157.7976 F       1  UNL1       -0.1658
     17 C         143.0217  139.8542  161.0025 C.3     1  UNL1        0.0771
     18 C         141.7559  140.4412  161.5532 C.3     1  UNL1        0.0202
     19 C         141.8835  140.4997  163.0467 C.3     1  UNL1        0.0058
     20 C         143.2281  139.9489  163.4190 C.3     1  UNL1        0.0206
     21 C         144.6062  139.3601  163.4818 C.3     1  UNL1        0.0061
     22 C         143.9315  139.5499  162.1556 C.3     1  UNL1        0.0223
     23 C         143.0675  140.1305  164.8992 C.ar    1  UNL1       -0.0227
     24 C         143.0453  138.9341  165.8037 C.ar    1  UNL1       -0.0036
     25 C         142.8848  139.1157  167.2839 C.ar    1  UNL1        0.0100
     26 C         142.7464  140.4938  167.8598 C.ar    1  UNL1        0.0684
     27 C         142.7686  141.6904  166.9554 C.ar    1  UNL1        0.0100
     28 C         142.9292  141.5087  165.4751 C.ar    1  UNL1       -0.0036
     29 C         142.5859  140.6755  169.3401 C.1     1  UNL1        0.1004
     30 N         142.4252  140.8573  170.8203 N.1     1  UNL1       -0.1908
     31 C         144.1557  140.5996  158.7870 C.3     1  UNL1        0.0963
     32 C         144.3647  141.9836  159.3264 C.3     1  UNL1        0.0389
     33 C         143.6549  143.1474  158.7007 C.3     1  UNL1        0.0739
     34 C         139.5758  146.2194  161.8510 C.3     1  UNL1        0.0897
     35 N         140.5956  145.4514  161.0635 N.3     1  UNL1       -0.2691
     36 C         140.6006  145.5293  159.5655 C.3     1  UNL1        0.0897
     37 C         141.6203  144.7613  158.7780 C.3     1  UNL1        0.0897
     38 N         142.6351  143.9154  159.4883 N.3     1  UNL1       -0.2703
     39 C         142.6301  143.8375  160.9862 C.3     1  UNL1        0.0897
     40 C         141.6103  144.6055  161.7738 C.3     1  UNL1        0.0897
@<TRIPOS>BOND
     1    34    35    1
     2    35    36    1
     3    36    37    1
     4    37    38    1
     5    38    33    1
     6    33    32    1
     7    32    31    1
     8    31     1    1
     9     1     2   am
    10     2     3    2
    11     2     4   am
    12     4     6    1
    13     6     7   ar
    14     7     8   ar
    15     8     9   ar
    16     9    10    1
    17     9    11   ar
    18    11    13    1
    19    13    14    1
    20    13    15    1
    21    13    16    1
    22    11    12   ar
    23    17     1    1
    24    17    18    1
    25    18    19    1
    26    19    20    1
    27    20    23    1
    28    23    24   ar
    29    24    25   ar
    30    25    26   ar
    31    26    29    1
    32    29    30    3
    33    26    27   ar
    34    27    28   ar
    35    20    21    1
    36    22    21    1
    37    38    39    1
    38    39    40    1
    39    40    35    1
    40    12     6   ar
    41    22    17    1
    42    22    20    1
    43    28    23   ar
    44     4     5    1
