@<TRIPOS>MOLECULE
*****
 33 36 0 0 0
SMALL
GASTEIGER

@<TRIPOS>ATOM
      1 C         138.7595  139.3947  167.0549 C.ar    1  UNL1        0.2512
      2 N         137.7508  138.7413  167.9526 N.ar    1  UNL1       -0.1058
      3 N         137.9162  139.3133  169.3293 N.ar    1  UNL1       -0.0923
      4 C         139.0271  140.3202  169.2826 C.ar    1  UNL1        0.3086
      5 O         139.5482  140.3705  167.8769 O.2     1  UNL1       -0.4048
      6 C         139.3206  138.5717  162.6666 C.ar    1  UNL1        0.0503
      7 C         139.4721  137.4610  163.6633 C.ar    1  UNL1        0.0148
      8 C         139.2850  137.7354  165.1260 C.ar    1  UNL1        0.0060
      9 C         138.9465  139.1204  165.5921 C.ar    1  UNL1        0.0553
     10 C         138.7950  140.2310  164.5954 C.ar    1  UNL1        0.0060
     11 C         138.9821  139.9567  163.1326 C.ar    1  UNL1        0.0148
     12 O         141.8927  139.3214  161.3166 O.2     1  UNL1       -0.2748
     13 C         140.7937  138.6722  160.5288 C.2     1  UNL1        0.2256
     14 N         139.5076  138.2974  161.2037 N.am    1  UNL1       -0.2839
     15 H         138.7863  137.8713  160.6866 H       1  UNL1        0.1549
     16 C         140.9807  138.3979  159.0660 C.3     1  UNL1        0.0768
     17 C         139.7988  138.4149  158.1426 C.3     1  UNL1        0.0091
     18 C         139.9859  138.1406  156.6798 C.3     1  UNL1        0.0005
     19 C         141.3549  137.8493  156.1404 C.3     1  UNL1        0.0000
     20 C         142.5368  137.8323  157.0638 C.3     1  UNL1        0.0005
     21 C         142.3497  138.1066  158.5266 C.3     1  UNL1        0.0091
     22 N         139.5287  141.1340  170.4385 N.pl3   1  UNL1       -0.2871
     23 H         139.5763  140.7351  171.3374 H       1  UNL1        0.1512
     24 C         139.9576  142.5553  170.2250 C.3     1  UNL1        0.0912
     25 C         141.4162  142.9054  170.2169 C.3     1  UNL1        0.0227
     26 C         142.2445  142.6399  168.9948 C.3     1  UNL1        0.0191
     27 C         142.8469  141.2837  168.7773 C.3     1  UNL1        0.0721
     28 N         142.7694  140.6364  167.4263 N.3     1  UNL1       -0.2727
     29 C         142.8595  139.1442  167.3034 C.3     1  UNL1        0.0721
     30 C         142.7820  138.4968  165.9525 C.3     1  UNL1        0.0174
     31 C         142.6144  139.3417  164.7244 C.3     1  UNL1        0.0029
     32 C         142.5243  140.8339  164.8474 C.3     1  UNL1        0.0174
     33 C         142.6018  141.4813  166.1983 C.3     1  UNL1        0.0721
@<TRIPOS>BOND
     1    12    13    2
     2    13    14   am
     3    14     6    1
     4     6     7   ar
     5     7     8   ar
     6     8     9   ar
     7     9     1    1
     8     1     2   ar
     9     2     3   ar
    10     3     4   ar
    11     4    22    1
    12    22    24    1
    13    24    25    1
    14    25    26    1
    15    26    27    1
    16    27    28    1
    17    28    29    1
    18    29    30    1
    19    30    31    1
    20    31    32    1
    21    32    33    1
    22     4     5   ar
    23     9    10   ar
    24    10    11   ar
    25    13    16    1
    26    16    17    1
    27    17    18    1
    28    18    19    1
    29    19    20    1
    30    20    21    1
    31    11     6   ar
    32    21    16    1
    33     5     1   ar
    34    33    28    1
    35    14    15    1
    36    22    23    1
@<TRIPOS>MOLECULE
*****
 33 36 0 0 0
SMALL
GASTEIGER

@<TRIPOS>ATOM
      1 C         143.0962  138.3497  158.9615 C.ar    1  UNL1        0.2512
      2 N         143.7087  139.4235  158.1119 N.ar    1  UNL1       -0.1058
      3 N         143.6740  138.9619  156.6851 N.ar    1  UNL1       -0.0923
      4 C         143.0400  137.6028  156.6529 C.ar    1  UNL1        0.3086
      5 O         142.6829  137.2245  158.0598 O.2     1  UNL1       -0.4048
      6 C         142.5878  138.4812  163.4308 C.ar    1  UNL1        0.0503
      7 C         143.8735  138.9390  162.8084 C.ar    1  UNL1        0.0148
      8 C         144.0430  138.8952  161.3187 C.ar    1  UNL1        0.0060
      9 C         142.9267  138.3936  160.4513 C.ar    1  UNL1        0.0553
     10 C         141.6410  137.9358  161.0737 C.ar    1  UNL1        0.0060
     11 C         141.4716  137.9796  162.5634 C.ar    1  UNL1        0.0148
     12 O         141.0732  140.7370  164.7025 O.2     1  UNL1       -0.2748
     13 C         141.6611  139.6529  165.5564 C.2     1  UNL1        0.2256
     14 N         142.4184  138.5250  164.9206 N.am    1  UNL1       -0.2839
     15 H         142.8042  137.8135  165.4810 H       1  UNL1        0.1549
     16 C         141.4916  139.6967  167.0462 C.3     1  UNL1        0.0768
     17 C         142.6289  139.3050  167.9423 C.3     1  UNL1        0.0091
     18 C         142.4594  139.3489  169.4320 C.3     1  UNL1        0.0005
     19 C         141.1525  139.7844  170.0256 C.3     1  UNL1        0.0000
     20 C         140.0152  140.1761  169.1296 C.3     1  UNL1        0.0005
     21 C         140.1847  140.1323  167.6398 C.3     1  UNL1        0.0091
     22 N         142.8045  136.7685  155.4288 N.pl3   1  UNL1       -0.2871
     23 H         143.5217  136.1903  155.0817 H       1  UNL1        0.1512
     24 C         141.4763  136.8153  154.7334 C.3     1  UNL1        0.0912
     25 C         140.9461  135.5921  154.0459 C.3     1  UNL1        0.0227
     26 C         141.7496  134.3254  154.0436 C.3     1  UNL1        0.0191
     27 C         141.6320  133.3607  155.1861 C.3     1  UNL1        0.0721
     28 N         142.8589  132.9323  155.9354 N.3     1  UNL1       -0.2727
     29 C         143.7299  131.8413  155.3866 C.3     1  UNL1        0.0721
     30 C         144.9568  131.4128  156.1358 C.3     1  UNL1        0.0174
     31 C         145.3127  132.0753  157.4337 C.3     1  UNL1        0.0029
     32 C         144.4416  133.1663  157.9823 C.3     1  UNL1        0.0174
     33 C         143.2147  133.5948  157.2331 C.3     1  UNL1        0.0721
@<TRIPOS>BOND
     1    12    13    2
     2    13    14   am
     3    14     6    1
     4     6     7   ar
     5     7     8   ar
     6     8     9   ar
     7     9     1    1
     8     1     2   ar
     9     2     3   ar
    10     3     4   ar
    11     4    22    1
    12    22    24    1
    13    24    25    1
    14    25    26    1
    15    26    27    1
    16    27    28    1
    17    28    29    1
    18    29    30    1
    19    30    31    1
    20    31    32    1
    21    32    33    1
    22     4     5   ar
    23     9    10   ar
    24    10    11   ar
    25    13    16    1
    26    16    17    1
    27    17    18    1
    28    18    19    1
    29    19    20    1
    30    20    21    1
    31    11     6   ar
    32    21    16    1
    33     5     1   ar
    34    33    28    1
    35    14    15    1
    36    22    23    1
@<TRIPOS>MOLECULE
*****
 33 36 0 0 0
SMALL
GASTEIGER

@<TRIPOS>ATOM
      1 C         140.1438  142.9667  160.5132 C.ar    1  UNL1        0.2512
      2 N         139.7195  144.2615  159.8859 N.ar    1  UNL1       -0.1058
      3 N         139.6205  145.2920  160.9714 N.ar    1  UNL1       -0.0923
      4 C         139.9835  144.6340  162.2697 C.ar    1  UNL1        0.3086
      5 O         140.3070  143.1969  161.9864 O.2     1  UNL1       -0.4048
      6 C         140.8101  139.0751  158.3543 C.ar    1  UNL1        0.0503
      7 C         140.0375  140.1772  157.6923 C.ar    1  UNL1        0.0148
      8 C         139.8154  141.4744  158.4120 C.ar    1  UNL1        0.0060
      9 C         140.3659  141.6695  159.7936 C.ar    1  UNL1        0.0553
     10 C         141.1386  140.5673  160.4555 C.ar    1  UNL1        0.0060
     11 C         141.3607  139.2701  159.7359 C.ar    1  UNL1        0.0148
     12 O         143.5216  138.4159  157.2527 O.2     1  UNL1       -0.2748
     13 C         142.3880  137.4482  157.0839 C.2     1  UNL1        0.2256
     14 N         141.0323  137.7778  157.6346 N.am    1  UNL1       -0.2839
     15 H         140.2882  137.1427  157.5238 H       1  UNL1        0.1549
     16 C         142.6101  136.1510  156.3642 C.3     1  UNL1        0.0768
     17 C         142.1466  135.9907  154.9467 C.3     1  UNL1        0.0091
     18 C         142.3688  134.6935  154.2271 C.3     1  UNL1        0.0005
     19 C         143.0544  133.5565  154.9251 C.3     1  UNL1        0.0000
     20 C         143.5178  133.7167  156.3426 C.3     1  UNL1        0.0005
     21 C         143.2957  135.0140  157.0622 C.3     1  UNL1        0.0091
     22 N         140.0172  145.2968  163.6149 N.pl3   1  UNL1       -0.2871
     23 H         140.4396  146.1801  163.7180 H       1  UNL1        0.1512
     24 C         139.4074  144.6137  164.8030 C.3     1  UNL1        0.0912
     25 C         137.9576  144.2293  164.7847 C.3     1  UNL1        0.0227
     26 C         137.5585  142.8243  164.4429 C.3     1  UNL1        0.0191
     27 C         138.5784  141.7251  164.4789 C.3     1  UNL1        0.0721
     28 N         138.4890  140.5867  163.5063 N.3     1  UNL1       -0.2727
     29 C         139.2039  139.2992  163.7910 C.3     1  UNL1        0.0721
     30 C         139.1146  138.1606  162.8184 C.3     1  UNL1        0.0174
     31 C         138.3103  138.3098  161.5610 C.3     1  UNL1        0.0029
     32 C         137.5955  139.5974  161.2764 C.3     1  UNL1        0.0174
     33 C         137.6848  140.7358  162.2490 C.3     1  UNL1        0.0721
@<TRIPOS>BOND
     1    12    13    2
     2    13    14   am
     3    14     6    1
     4     6     7   ar
     5     7     8   ar
     6     8     9   ar
     7     9     1    1
     8     1     2   ar
     9     2     3   ar
    10     3     4   ar
    11     4    22    1
    12    22    24    1
    13    24    25    1
    14    25    26    1
    15    26    27    1
    16    27    28    1
    17    28    29    1
    18    29    30    1
    19    30    31    1
    20    31    32    1
    21    32    33    1
    22     4     5   ar
    23     9    10   ar
    24    10    11   ar
    25    13    16    1
    26    16    17    1
    27    17    18    1
    28    18    19    1
    29    19    20    1
    30    20    21    1
    31    11     6   ar
    32    21    16    1
    33     5     1   ar
    34    33    28    1
    35    14    15    1
    36    22    23    1
@<TRIPOS>MOLECULE
*****
 33 36 0 0 0
SMALL
GASTEIGER

@<TRIPOS>ATOM
      1 C         142.2309  142.7421  161.3283 C.ar    1  UNL1        0.2512
      2 N         143.2785  143.8094  161.4446 N.ar    1  UNL1       -0.1058
      3 N         142.6995  144.9427  162.2385 N.ar    1  UNL1       -0.0923
      4 C         141.2940  144.5758  162.6129 C.ar    1  UNL1        0.3086
      5 O         141.0045  143.2158  162.0503 O.2     1  UNL1       -0.4048
      6 C         142.6875  138.8096  159.1890 C.ar    1  UNL1        0.0503
      7 C         141.6108  138.9825  160.2189 C.ar    1  UNL1        0.0148
      8 C         141.4586  140.2933  160.9320 C.ar    1  UNL1        0.0060
      9 C         142.3832  141.4312  160.6151 C.ar    1  UNL1        0.0553
     10 C         143.4599  141.2583  159.5852 C.ar    1  UNL1        0.0060
     11 C         143.6120  139.9475  158.8721 C.ar    1  UNL1        0.0148
     12 O         141.5116  138.4448  156.4532 O.2     1  UNL1       -0.2748
     13 C         142.2518  137.3163  157.1080 C.2     1  UNL1        0.2256
     14 N         142.8397  137.4987  158.4758 N.am    1  UNL1       -0.2839
     15 H         143.3256  136.7581  158.9055 H       1  UNL1        0.1549
     16 C         142.4040  136.0055  156.3948 C.3     1  UNL1        0.0768
     17 C         143.6333  135.1732  156.6095 C.3     1  UNL1        0.0091
     18 C         143.7855  133.8624  155.8963 C.3     1  UNL1        0.0005
     19 C         142.7083  133.3839  154.9686 C.3     1  UNL1        0.0000
     20 C         141.4790  134.2161  154.7539 C.3     1  UNL1        0.0005
     21 C         141.3269  135.5269  155.4671 C.3     1  UNL1        0.0091
     22 N         140.3448  145.4207  163.4098 N.pl3   1  UNL1       -0.2871
     23 H         140.6331  146.2989  163.7489 H       1  UNL1        0.1512
     24 C         138.9562  144.9276  163.6903 C.3     1  UNL1        0.0912
     25 C         138.7284  143.8898  164.7491 C.3     1  UNL1        0.0227
     26 C         137.7389  142.7865  164.5173 C.3     1  UNL1        0.0191
     27 C         137.5994  142.1786  163.1532 C.3     1  UNL1        0.0721
     28 N         137.9367  140.7329  162.9381 N.3     1  UNL1       -0.2727
     29 C         137.7003  140.0989  161.5994 C.3     1  UNL1        0.0721
     30 C         138.0376  138.6531  161.3842 C.3     1  UNL1        0.0174
     31 C         138.6113  137.8416  162.5077 C.3     1  UNL1        0.0029
     32 C         138.8477  138.4758  163.8463 C.3     1  UNL1        0.0174
     33 C         138.5104  139.9214  164.0615 C.3     1  UNL1        0.0721
@<TRIPOS>BOND
     1    12    13    2
     2    13    14   am
     3    14     6    1
     4     6     7   ar
     5     7     8   ar
     6     8     9   ar
     7     9     1    1
     8     1     2   ar
     9     2     3   ar
    10     3     4   ar
    11     4    22    1
    12    22    24    1
    13    24    25    1
    14    25    26    1
    15    26    27    1
    16    27    28    1
    17    28    29    1
    18    29    30    1
    19    30    31    1
    20    31    32    1
    21    32    33    1
    22     4     5   ar
    23     9    10   ar
    24    10    11   ar
    25    13    16    1
    26    16    17    1
    27    17    18    1
    28    18    19    1
    29    19    20    1
    30    20    21    1
    31    11     6   ar
    32    21    16    1
    33     5     1   ar
    34    33    28    1
    35    14    15    1
    36    22    23    1
@<TRIPOS>MOLECULE
*****
 33 36 0 0 0
SMALL
GASTEIGER

@<TRIPOS>ATOM
      1 C         142.3606  142.7152  161.3596 C.ar    1  UNL1        0.2512
      2 N         143.3457  143.8452  161.4121 N.ar    1  UNL1       -0.1058
      3 N         142.7792  144.9132  162.3000 N.ar    1  UNL1       -0.0923
      4 C         141.4439  144.4432  162.7963 C.ar    1  UNL1        0.3086
      5 O         141.1852  143.0848  162.2151 O.2     1  UNL1       -0.4048
      6 C         142.8462  138.8883  159.0425 C.ar    1  UNL1        0.0503
      7 C         141.7615  139.0096  160.0714 C.ar    1  UNL1        0.0148
      8 C         141.5997  140.2852  160.8437 C.ar    1  UNL1        0.0060
      9 C         142.5225  141.4395  160.5872 C.ar    1  UNL1        0.0553
     10 C         143.6072  141.3183  159.5583 C.ar    1  UNL1        0.0060
     11 C         143.7691  140.0427  158.7859 C.ar    1  UNL1        0.0148
     12 O         141.0172  138.2850  156.7423 O.2     1  UNL1       -0.2748
     13 C         142.0936  137.3110  157.1200 C.2     1  UNL1        0.2256
     14 N         143.0081  137.6127  158.2701 N.am    1  UNL1       -0.2839
     15 H         143.7146  136.9734  158.5179 H       1  UNL1        0.1549
     16 C         142.2555  136.0354  156.3476 C.3     1  UNL1        0.0768
     17 C         141.2222  135.6342  155.3370 C.3     1  UNL1        0.0091
     18 C         141.3842  134.3586  154.5647 C.3     1  UNL1        0.0005
     19 C         142.5794  133.4842  154.8029 C.3     1  UNL1        0.0000
     20 C         143.6127  133.8854  155.8134 C.3     1  UNL1        0.0005
     21 C         143.4508  135.1610  156.5858 C.3     1  UNL1        0.0091
     22 N         140.5280  145.1990  163.7129 N.pl3   1  UNL1       -0.2871
     23 H         140.6598  146.1644  163.8541 H       1  UNL1        0.1512
     24 C         139.4114  144.4840  164.4142 C.3     1  UNL1        0.0912
     25 C         139.6893  143.7029  165.6643 C.3     1  UNL1        0.0227
     26 C         140.5582  142.4815  165.6080 C.3     1  UNL1        0.0191
     27 C         142.0123  142.5785  165.9626 C.3     1  UNL1        0.0721
     28 N         143.0419  141.9192  165.0935 N.3     1  UNL1       -0.2727
     29 C         142.7955  140.5423  164.5519 C.3     1  UNL1        0.0721
     30 C         143.8251  139.8828  163.6828 C.3     1  UNL1        0.0174
     31 C         145.1010  140.6003  163.3554 C.3     1  UNL1        0.0029
     32 C         145.3473  141.9772  163.8971 C.3     1  UNL1        0.0174
     33 C         144.3178  142.6366  164.7661 C.3     1  UNL1        0.0721
@<TRIPOS>BOND
     1    12    13    2
     2    13    14   am
     3    14     6    1
     4     6     7   ar
     5     7     8   ar
     6     8     9   ar
     7     9     1    1
     8     1     2   ar
     9     2     3   ar
    10     3     4   ar
    11     4    22    1
    12    22    24    1
    13    24    25    1
    14    25    26    1
    15    26    27    1
    16    27    28    1
    17    28    29    1
    18    29    30    1
    19    30    31    1
    20    31    32    1
    21    32    33    1
    22     4     5   ar
    23     9    10   ar
    24    10    11   ar
    25    13    16    1
    26    16    17    1
    27    17    18    1
    28    18    19    1
    29    19    20    1
    30    20    21    1
    31    11     6   ar
    32    21    16    1
    33     5     1   ar
    34    33    28    1
    35    14    15    1
    36    22    23    1
@<TRIPOS>MOLECULE
*****
 33 36 0 0 0
SMALL
GASTEIGER

@<TRIPOS>ATOM
      1 C         138.9853  139.0148  166.0566 C.ar    1  UNL1        0.2512
      2 N         137.7943  138.2426  166.5416 N.ar    1  UNL1       -0.1058
      3 N         137.5940  138.5629  167.9932 N.ar    1  UNL1       -0.0923
      4 C         138.6612  139.5330  168.4054 C.ar    1  UNL1        0.3086
      5 O         139.5211  139.8123  167.2084 O.2     1  UNL1       -0.4048
      6 C         140.6572  138.9503  161.8792 C.ar    1  UNL1        0.0503
      7 C         140.1289  140.2302  162.4558 C.ar    1  UNL1        0.0148
      8 C         139.5716  140.2517  163.8483 C.ar    1  UNL1        0.0060
      9 C         139.5426  138.9933  164.6640 C.ar    1  UNL1        0.0553
     10 C         140.0709  137.7133  164.0874 C.ar    1  UNL1        0.0060
     11 C         140.6282  137.6918  162.6950 C.ar    1  UNL1        0.0148
     12 O         143.2797  140.2836  161.2923 O.2     1  UNL1       -0.2748
     13 C         142.5258  139.5954  160.1932 C.2     1  UNL1        0.2256
     14 N         141.2145  138.9287  160.4867 N.am    1  UNL1       -0.2839
     15 H         140.7197  138.4770  159.7653 H       1  UNL1        0.1549
     16 C         143.0831  139.5738  158.8007 C.3     1  UNL1        0.0768
     17 C         142.6258  138.5295  157.8260 C.3     1  UNL1        0.0091
     18 C         143.1831  138.5080  156.4335 C.3     1  UNL1        0.0005
     19 C         144.1977  139.5308  156.0159 C.3     1  UNL1        0.0000
     20 C         144.6550  140.5751  156.9907 C.3     1  UNL1        0.0005
     21 C         144.0977  140.5967  158.3831 C.3     1  UNL1        0.0091
     22 N         138.8377  140.1207  169.7742 N.pl3   1  UNL1       -0.2871
     23 H         138.2699  139.8149  170.5181 H       1  UNL1        0.1512
     24 C         139.8791  141.1742  170.0096 C.3     1  UNL1        0.0912
     25 C         141.0676  140.8740  170.8741 C.3     1  UNL1        0.0227
     26 C         142.3819  140.5179  170.2451 C.3     1  UNL1        0.0191
     27 C         142.4362  139.4956  169.1488 C.3     1  UNL1        0.0721
     28 N         142.6965  139.9247  167.7353 N.3     1  UNL1       -0.2727
     29 C         142.9836  138.8974  166.6806 C.3     1  UNL1        0.0721
     30 C         143.2440  139.3264  165.2669 C.3     1  UNL1        0.0174
     31 C         143.2172  140.7826  164.9080 C.3     1  UNL1        0.0029
     32 C         142.9300  141.8097  165.9628 C.3     1  UNL1        0.0174
     33 C         142.6697  141.3808  167.3764 C.3     1  UNL1        0.0721
@<TRIPOS>BOND
     1    12    13    2
     2    13    14   am
     3    14     6    1
     4     6     7   ar
     5     7     8   ar
     6     8     9   ar
     7     9     1    1
     8     1     2   ar
     9     2     3   ar
    10     3     4   ar
    11     4    22    1
    12    22    24    1
    13    24    25    1
    14    25    26    1
    15    26    27    1
    16    27    28    1
    17    28    29    1
    18    29    30    1
    19    30    31    1
    20    31    32    1
    21    32    33    1
    22     4     5   ar
    23     9    10   ar
    24    10    11   ar
    25    13    16    1
    26    16    17    1
    27    17    18    1
    28    18    19    1
    29    19    20    1
    30    20    21    1
    31    11     6   ar
    32    21    16    1
    33     5     1   ar
    34    33    28    1
    35    14    15    1
    36    22    23    1
@<TRIPOS>MOLECULE
*****
 33 36 0 0 0
SMALL
GASTEIGER

@<TRIPOS>ATOM
      1 C         140.0400  142.7959  160.6098 C.ar    1  UNL1        0.2512
      2 N         138.7520  143.5359  160.8185 N.ar    1  UNL1       -0.1058
      3 N         139.0430  144.7458  161.6561 N.ar    1  UNL1       -0.0923
      4 C         140.5109  144.7535  161.9649 C.ar    1  UNL1        0.3086
      5 O         141.1270  143.5485  161.3183 O.2     1  UNL1       -0.4048
      6 C         140.5528  138.9869  158.2692 C.ar    1  UNL1        0.0503
      7 C         140.1374  138.9320  159.7094 C.ar    1  UNL1        0.0148
      8 C         139.9665  140.2016  160.4896 C.ar    1  UNL1        0.0060
      9 C         140.2110  141.5262  159.8296 C.ar    1  UNL1        0.0553
     10 C         140.6263  141.5811  158.3893 C.ar    1  UNL1        0.0060
     11 C         140.7972  140.3115  157.6091 C.ar    1  UNL1        0.0148
     12 O         143.3021  138.0313  157.5426 O.2     1  UNL1       -0.2748
     13 C         142.0984  137.2394  157.1256 C.2     1  UNL1        0.2256
     14 N         140.7237  137.7172  157.4889 N.am    1  UNL1       -0.2839
     15 H         139.9336  137.1975  157.2152 H       1  UNL1        0.1549
     16 C         142.2693  135.9698  156.3454 C.3     1  UNL1        0.0768
     17 C         143.4601  135.0919  156.5929 C.3     1  UNL1        0.0091
     18 C         143.6309  133.8223  155.8127 C.3     1  UNL1        0.0005
     19 C         142.6110  133.4305  154.7848 C.3     1  UNL1        0.0000
     20 C         141.4203  134.3084  154.5373 C.3     1  UNL1        0.0005
     21 C         141.2494  135.5780  155.3175 C.3     1  UNL1        0.0091
     22 N         141.2353  145.7853  162.7778 N.pl3   1  UNL1       -0.2871
     23 H         141.0817  146.7428  162.6078 H       1  UNL1        0.1512
     24 C         142.1940  145.3583  163.8495 C.3     1  UNL1        0.0912
     25 C         143.5190  144.7622  163.4765 C.3     1  UNL1        0.0227
     26 C         143.9932  143.5081  164.1490 C.3     1  UNL1        0.0191
     27 C         145.0037  142.6303  163.4722 C.3     1  UNL1        0.0721
     28 N         144.5499  141.5324  162.5563 N.3     1  UNL1       -0.2727
     29 C         144.2691  141.8281  161.1128 C.3     1  UNL1        0.0721
     30 C         143.8152  140.7303  160.1968 C.3     1  UNL1        0.0174
     31 C         143.6422  139.3368  160.7244 C.3     1  UNL1        0.0029
     32 C         143.9231  139.0412  162.1679 C.3     1  UNL1        0.0174
     33 C         144.3769  140.1390  163.0838 C.3     1  UNL1        0.0721
@<TRIPOS>BOND
     1    12    13    2
     2    13    14   am
     3    14     6    1
     4     6     7   ar
     5     7     8   ar
     6     8     9   ar
     7     9     1    1
     8     1     2   ar
     9     2     3   ar
    10     3     4   ar
    11     4    22    1
    12    22    24    1
    13    24    25    1
    14    25    26    1
    15    26    27    1
    16    27    28    1
    17    28    29    1
    18    29    30    1
    19    30    31    1
    20    31    32    1
    21    32    33    1
    22     4     5   ar
    23     9    10   ar
    24    10    11   ar
    25    13    16    1
    26    16    17    1
    27    17    18    1
    28    18    19    1
    29    19    20    1
    30    20    21    1
    31    11     6   ar
    32    21    16    1
    33     5     1   ar
    34    33    28    1
    35    14    15    1
    36    22    23    1
@<TRIPOS>MOLECULE
*****
 33 36 0 0 0
SMALL
GASTEIGER

@<TRIPOS>ATOM
      1 C         138.3187  141.3711  160.0175 C.ar    1  UNL1        0.2512
      2 N         137.8156  140.3032  159.0920 N.ar    1  UNL1       -0.1058
      3 N         137.7577  140.8789  157.7080 N.ar    1  UNL1       -0.0923
      4 C         138.2250  142.3025  157.7783 C.ar    1  UNL1        0.3086
      5 O         138.5717  142.6067  159.2056 O.2     1  UNL1       -0.4048
      6 C         138.9570  140.9427  164.4514 C.ar    1  UNL1        0.0503
      7 C         139.7905  140.1446  163.4931 C.ar    1  UNL1        0.0148
      8 C         139.5777  140.2874  162.0152 C.ar    1  UNL1        0.0060
      9 C         138.5315  141.2283  161.4955 C.ar    1  UNL1        0.0553
     10 C         137.6980  142.0264  162.4538 C.ar    1  UNL1        0.0060
     11 C         137.9107  141.8836  163.9317 C.ar    1  UNL1        0.0148
     12 O         140.8021  142.8207  165.8896 O.2     1  UNL1       -0.2748
     13 C         140.0923  141.7389  166.6485 C.2     1  UNL1        0.2256
     14 N         139.1697  140.7999  165.9294 N.am    1  UNL1       -0.2839
     15 H         138.7039  140.0899  166.4274 H       1  UNL1        0.1549
     16 C         140.3050  141.5962  168.1265 C.3     1  UNL1        0.0768
     17 C         140.6804  142.7929  168.9492 C.3     1  UNL1        0.0091
     18 C         140.8932  142.6501  170.4271 C.3     1  UNL1        0.0005
     19 C         140.7305  141.3105  171.0823 C.3     1  UNL1        0.0000
     20 C         140.3551  140.1138  170.2596 C.3     1  UNL1        0.0005
     21 C         140.1424  140.2567  168.7816 C.3     1  UNL1        0.0091
     22 N         138.3275  143.2548  156.6239 N.pl3   1  UNL1       -0.2871
     23 H         137.5408  143.4292  156.0582 H       1  UNL1        0.1512
     24 C         139.6286  143.9414  156.3313 C.3     1  UNL1        0.0912
     25 C         139.8356  145.3666  156.7507 C.3     1  UNL1        0.0227
     26 C         140.9265  145.7122  157.7205 C.3     1  UNL1        0.0191
     27 C         141.4534  144.6682  158.6597 C.3     1  UNL1        0.0721
     28 N         141.0645  144.6974  160.1082 N.3     1  UNL1       -0.2727
     29 C         141.5632  143.6330  161.0401 C.3     1  UNL1        0.0721
     30 C         141.1744  143.6621  162.4886 C.3     1  UNL1        0.0174
     31 C         140.2869  144.7555  163.0051 C.3     1  UNL1        0.0029
     32 C         139.7883  145.8198  162.0731 C.3     1  UNL1        0.0174
     33 C         140.1771  145.7907  160.6247 C.3     1  UNL1        0.0721
@<TRIPOS>BOND
     1    12    13    2
     2    13    14   am
     3    14     6    1
     4     6     7   ar
     5     7     8   ar
     6     8     9   ar
     7     9     1    1
     8     1     2   ar
     9     2     3   ar
    10     3     4   ar
    11     4    22    1
    12    22    24    1
    13    24    25    1
    14    25    26    1
    15    26    27    1
    16    27    28    1
    17    28    29    1
    18    29    30    1
    19    30    31    1
    20    31    32    1
    21    32    33    1
    22     4     5   ar
    23     9    10   ar
    24    10    11   ar
    25    13    16    1
    26    16    17    1
    27    17    18    1
    28    18    19    1
    29    19    20    1
    30    20    21    1
    31    11     6   ar
    32    21    16    1
    33     5     1   ar
    34    33    28    1
    35    14    15    1
    36    22    23    1
@<TRIPOS>MOLECULE
*****
 33 36 0 0 0
SMALL
GASTEIGER

@<TRIPOS>ATOM
      1 C         140.6835  145.1771  160.0878 C.ar    1  UNL1        0.2512
      2 N         139.6659  145.8515  159.2162 N.ar    1  UNL1       -0.1058
      3 N         140.2798  146.0607  157.8637 N.ar    1  UNL1       -0.0923
      4 C         141.6768  145.5156  157.8994 C.ar    1  UNL1        0.3086
      5 O         141.9263  144.9695  159.2740 O.2     1  UNL1       -0.4048
      6 C         140.1086  143.9858  164.3890 C.ar    1  UNL1        0.0503
      7 C         141.2720  144.8484  163.9988 C.ar    1  UNL1        0.0148
      8 C         141.4636  145.2455  162.5651 C.ar    1  UNL1        0.0060
      9 C         140.4918  144.7799  161.5216 C.ar    1  UNL1        0.0553
     10 C         139.3284  143.9173  161.9118 C.ar    1  UNL1        0.0060
     11 C         139.1368  143.5203  163.3455 C.ar    1  UNL1        0.0148
     12 O         141.6484  141.6748  165.5242 O.2     1  UNL1       -0.2748
     13 C         140.6868  142.4332  166.3903 C.2     1  UNL1        0.2256
     14 N         139.9170  143.5887  165.8228 N.am    1  UNL1       -0.2839
     15 H         139.2859  144.0864  166.3913 H       1  UNL1        0.1549
     16 C         140.4952  142.0361  167.8241 C.3     1  UNL1        0.0768
     17 C         140.4585  143.0861  168.8947 C.3     1  UNL1        0.0091
     18 C         140.2668  142.6889  170.3284 C.3     1  UNL1        0.0005
     19 C         140.1119  141.2418  170.6915 C.3     1  UNL1        0.0000
     20 C         140.1486  140.1919  169.6209 C.3     1  UNL1        0.0005
     21 C         140.3402  140.5890  168.1872 C.3     1  UNL1        0.0091
     22 N         142.6530  145.5164  156.7605 N.pl3   1  UNL1       -0.2871
     23 H         143.2249  146.3021  156.6029 H       1  UNL1        0.1512
     24 C         142.7578  144.3202  155.8616 C.3     1  UNL1        0.0912
     25 C         142.2802  142.9803  156.3376 C.3     1  UNL1        0.0227
     26 C         143.2634  141.9771  156.8638 C.3     1  UNL1        0.0191
     27 C         144.1340  142.3234  158.0351 C.3     1  UNL1        0.0721
     28 N         143.6244  142.1278  159.4323 N.3     1  UNL1       -0.2727
     29 C         144.4307  142.6147  160.5996 C.3     1  UNL1        0.0721
     30 C         143.9211  142.4192  161.9969 C.3     1  UNL1        0.0174
     31 C         142.6053  141.7367  162.2267 C.3     1  UNL1        0.0029
     32 C         141.7991  141.2498  161.0592 C.3     1  UNL1        0.0174
     33 C         142.3086  141.4454  159.6621 C.3     1  UNL1        0.0721
@<TRIPOS>BOND
     1    12    13    2
     2    13    14   am
     3    14     6    1
     4     6     7   ar
     5     7     8   ar
     6     8     9   ar
     7     9     1    1
     8     1     2   ar
     9     2     3   ar
    10     3     4   ar
    11     4    22    1
    12    22    24    1
    13    24    25    1
    14    25    26    1
    15    26    27    1
    16    27    28    1
    17    28    29    1
    18    29    30    1
    19    30    31    1
    20    31    32    1
    21    32    33    1
    22     4     5   ar
    23     9    10   ar
    24    10    11   ar
    25    13    16    1
    26    16    17    1
    27    17    18    1
    28    18    19    1
    29    19    20    1
    30    20    21    1
    31    11     6   ar
    32    21    16    1
    33     5     1   ar
    34    33    28    1
    35    14    15    1
    36    22    23    1
