@<TRIPOS>MOLECULE
*****
 24 27 0 0 0
SMALL
GASTEIGER

@<TRIPOS>ATOM
      1 C         141.2565  137.9504  162.9762 C.3     1  UNL1        0.0947
      2 C         139.9611  137.8339  162.2290 C.3     1  UNL1        0.0222
      3 C         138.6742  138.2236  162.8938 C.3     1  UNL1        0.0065
      4 C         138.6827  138.7298  164.3058 C.3     1  UNL1        0.0277
      5 C         139.9781  138.8463  165.0530 C.2     1  UNL1       -0.0062
      6 C         141.2650  138.4566  164.3882 C.2     1  UNL1        0.0689
      7 N         142.3787  138.6781  165.3684 N.2     1  UNL1       -0.2526
      8 C         141.7800  139.2047  166.6389 C.2     1  UNL1        0.0627
      9 C         142.3942  139.6030  167.9482 C.3     1  UNL1        0.0722
     10 C         141.5247  140.1053  169.0626 C.2     1  UNL1       -0.0131
     11 C         140.0410  140.2092  168.8677 C.2     1  UNL1        0.0307
     12 BR        139.1715  140.7114  169.9820 Br      1  UNL1       -0.0493
     13 C         139.4269  139.8109  167.5583 C.2     1  UNL1        0.0073
     14 C         140.2964  139.3086  166.4440 C.2     1  UNL1        0.0116
     15 N         142.5435  137.5607  162.3115 N.3     1  UNL1       -0.2915
     16 H         143.1901  137.2955  163.0544 H       1  UNL1        0.1238
     17 C         143.2149  138.4037  159.9475 C.3     1  UNL1        0.0220
     18 C         143.2655  138.5451  161.4399 C.3     1  UNL1        0.0771
     19 C         144.0381  139.6710  162.0608 C.ar    1  UNL1       -0.0080
     20 C         144.1757  140.9763  161.3346 C.ar    1  UNL1       -0.0030
     21 C         144.9483  142.1022  161.9555 C.ar    1  UNL1       -0.0003
     22 C         145.5833  141.9228  163.3025 C.ar    1  UNL1       -0.0000
     23 C         145.4457  140.6175  164.0287 C.ar    1  UNL1       -0.0003
     24 C         144.6731  139.4916  163.4078 C.ar    1  UNL1       -0.0030
@<TRIPOS>BOND
     1    18    17    1
     2    18    15    1
     3     1    15    1
     4     1     2    1
     5     2     3    1
     6     3     4    1
     7     4     5    1
     8     5     6    2
     9     6     7    1
    10     7     8    2
    11     8     9    1
    12     9    10    1
    13    10    11    2
    14    11    12    1
    15    11    13    1
    16    13    14    2
    17    18    19    1
    18    19    20   ar
    19    20    21   ar
    20    21    22   ar
    21    22    23   ar
    22    23    24   ar
    23     6     1    1
    24    14     8    1
    25    24    19   ar
    26    14     5    1
    27    15    16    1
@<TRIPOS>MOLECULE
*****
 24 27 0 0 0
SMALL
GASTEIGER

@<TRIPOS>ATOM
      1 C         137.7823  142.0492  163.4837 C.3     1  UNL1        0.0947
      2 C         137.7539  143.4382  162.9184 C.3     1  UNL1        0.0222
      3 C         138.4866  144.5464  163.6148 C.3     1  UNL1        0.0065
      4 C         139.2476  144.2655  164.8765 C.3     1  UNL1        0.0277
      5 C         139.2759  142.8765  165.4418 C.2     1  UNL1       -0.0062
      6 C         138.5433  141.7683  164.7454 C.2     1  UNL1        0.0689
      7 N         138.7503  140.5087  165.5334 N.2     1  UNL1       -0.2526
      8 C         139.6109  140.8386  166.7168 C.2     1  UNL1        0.0627
      9 C         140.1407  139.9955  167.8387 C.3     1  UNL1        0.0722
     10 C         140.9954  140.6158  168.9040 C.2     1  UNL1       -0.0131
     11 C         141.3203  142.0791  168.8474 C.2     1  UNL1        0.0307
     12 BR        142.1750  142.6994  169.9127 Br      1  UNL1       -0.0493
     13 C         140.7904  142.9222  167.7255 C.2     1  UNL1        0.0073
     14 C         139.9358  142.3019  166.6602 C.2     1  UNL1        0.0116
     15 N         137.0496  140.9409  162.7872 N.3     1  UNL1       -0.2915
     16 H         136.6684  140.3368  163.5153 H       1  UNL1        0.1238
     17 C         137.2565  139.8742  160.4273 C.3     1  UNL1        0.0220
     18 C         137.7766  140.0510  161.8231 C.3     1  UNL1        0.0771
     19 C         139.0238  139.3380  162.2547 C.ar    1  UNL1       -0.0080
     20 C         138.9263  138.0281  162.9791 C.ar    1  UNL1       -0.0030
     21 C         140.1734  137.3151  163.4107 C.ar    1  UNL1       -0.0003
     22 C         141.5180  137.9120  163.1180 C.ar    1  UNL1       -0.0000
     23 C         141.6155  139.2219  162.3937 C.ar    1  UNL1       -0.0003
     24 C         140.3684  139.9349  161.9620 C.ar    1  UNL1       -0.0030
@<TRIPOS>BOND
     1    18    17    1
     2    18    15    1
     3     1    15    1
     4     1     2    1
     5     2     3    1
     6     3     4    1
     7     4     5    1
     8     5     6    2
     9     6     7    1
    10     7     8    2
    11     8     9    1
    12     9    10    1
    13    10    11    2
    14    11    12    1
    15    11    13    1
    16    13    14    2
    17    18    19    1
    18    19    20   ar
    19    20    21   ar
    20    21    22   ar
    21    22    23   ar
    22    23    24   ar
    23     6     1    1
    24    14     8    1
    25    24    19   ar
    26    14     5    1
    27    15    16    1
@<TRIPOS>MOLECULE
*****
 24 27 0 0 0
SMALL
GASTEIGER

@<TRIPOS>ATOM
      1 C         143.7136  139.7367  164.1293 C.3     1  UNL1        0.0947
      2 C         144.7164  140.7079  163.5807 C.3     1  UNL1        0.0222
      3 C         144.8581  142.0680  164.1972 C.3     1  UNL1        0.0065
      4 C         143.9970  142.4568  165.3622 C.3     1  UNL1        0.0277
      5 C         142.9941  141.4856  165.9107 C.2     1  UNL1       -0.0062
      6 C         142.8524  140.1255  165.2942 C.2     1  UNL1        0.0689
      7 N         141.7851  139.3853  166.0446 N.2     1  UNL1       -0.2526
      8 C         141.2671  140.2880  167.1248 C.2     1  UNL1        0.0627
      9 C         140.2117  140.0957  168.1731 C.3     1  UNL1        0.0722
     10 C         139.9033  141.2015  169.1388 C.2     1  UNL1       -0.0131
     11 C         140.6506  142.4995  169.0560 C.2     1  UNL1        0.0307
     12 BR        140.3423  143.6053  170.0215 Br      1  UNL1       -0.0493
     13 C         141.7061  142.6918  168.0076 C.2     1  UNL1        0.0073
     14 C         142.0144  141.5860  167.0421 C.2     1  UNL1        0.0116
     15 N         143.5719  138.3765  163.5128 N.3     1  UNL1       -0.2915
     16 H         144.5136  137.9958  163.4198 H       1  UNL1        0.1238
     17 C         143.7425  138.1341  160.9317 C.3     1  UNL1        0.0220
     18 C         142.9093  138.2245  162.1757 C.3     1  UNL1        0.0771
     19 C         141.4134  138.1628  162.0826 C.ar    1  UNL1       -0.0080
     20 C         140.6098  137.6588  163.2445 C.ar    1  UNL1       -0.0030
     21 C         139.1140  137.5971  163.1515 C.ar    1  UNL1       -0.0003
     22 C         138.4218  138.0395  161.8965 C.ar    1  UNL1       -0.0000
     23 C         139.2254  138.5435  160.7345 C.ar    1  UNL1       -0.0003
     24 C         140.7212  138.6052  160.8275 C.ar    1  UNL1       -0.0030
@<TRIPOS>BOND
     1    18    17    1
     2    18    15    1
     3     1    15    1
     4     1     2    1
     5     2     3    1
     6     3     4    1
     7     4     5    1
     8     5     6    2
     9     6     7    1
    10     7     8    2
    11     8     9    1
    12     9    10    1
    13    10    11    2
    14    11    12    1
    15    11    13    1
    16    13    14    2
    17    18    19    1
    18    19    20   ar
    19    20    21   ar
    20    21    22   ar
    21    22    23   ar
    22    23    24   ar
    23     6     1    1
    24    14     8    1
    25    24    19   ar
    26    14     5    1
    27    15    16    1
@<TRIPOS>MOLECULE
*****
 24 27 0 0 0
SMALL
GASTEIGER

@<TRIPOS>ATOM
      1 C         137.8112  142.1094  163.8233 C.3     1  UNL1        0.0947
      2 C         137.4515  143.5590  163.6840 C.3     1  UNL1        0.0222
      3 C         138.1455  144.5881  164.5260 C.3     1  UNL1        0.0065
      4 C         139.1993  144.1678  165.5073 C.3     1  UNL1        0.0277
      5 C         139.5590  142.7182  165.6466 C.2     1  UNL1       -0.0062
      6 C         138.8649  141.6891  164.8046 C.2     1  UNL1        0.0689
      7 N         139.4265  140.3442  165.1596 N.2     1  UNL1       -0.2526
      8 C         140.4677  140.5423  166.2211 C.2     1  UNL1        0.0627
      9 C         141.3517  139.5762  166.9525 C.3     1  UNL1        0.0722
     10 C         142.3178  140.0773  167.9850 C.2     1  UNL1       -0.0131
     11 C         142.3996  141.5445  168.2859 C.2     1  UNL1        0.0307
     12 BR        143.3656  142.0457  169.3183 Br      1  UNL1       -0.0493
     13 C         141.5155  142.5107  167.5544 C.2     1  UNL1        0.0073
     14 C         140.5495  142.0095  166.5221 C.2     1  UNL1        0.0116
     15 N         137.1171  141.0802  162.9812 N.3     1  UNL1       -0.2915
     16 H         136.7557  140.3720  163.6202 H       1  UNL1        0.1238
     17 C         137.6520  138.8832  161.7017 C.3     1  UNL1        0.0220
     18 C         137.8748  140.3517  161.9111 C.3     1  UNL1        0.0771
     19 C         138.8554  141.0918  161.0503 C.ar    1  UNL1       -0.0080
     20 C         140.2895  140.6549  161.0015 C.ar    1  UNL1       -0.0030
     21 C         141.2701  141.3949  160.1408 C.ar    1  UNL1       -0.0003
     22 C         140.8165  142.5718  159.3289 C.ar    1  UNL1       -0.0000
     23 C         139.3823  143.0086  159.3777 C.ar    1  UNL1       -0.0003
     24 C         138.4018  142.2686  160.2384 C.ar    1  UNL1       -0.0030
@<TRIPOS>BOND
     1    18    17    1
     2    18    15    1
     3     1    15    1
     4     1     2    1
     5     2     3    1
     6     3     4    1
     7     4     5    1
     8     5     6    2
     9     6     7    1
    10     7     8    2
    11     8     9    1
    12     9    10    1
    13    10    11    2
    14    11    12    1
    15    11    13    1
    16    13    14    2
    17    18    19    1
    18    19    20   ar
    19    20    21   ar
    20    21    22   ar
    21    22    23   ar
    22    23    24   ar
    23     6     1    1
    24    14     8    1
    25    24    19   ar
    26    14     5    1
    27    15    16    1
@<TRIPOS>MOLECULE
*****
 24 27 0 0 0
SMALL
GASTEIGER

@<TRIPOS>ATOM
      1 C         139.9248  138.9087  163.4271 C.3     1  UNL1        0.0947
      2 C         141.1109  138.5202  162.5951 C.3     1  UNL1        0.0222
      3 C         142.4750  138.4598  163.2160 C.3     1  UNL1        0.0065
      4 C         142.6530  138.7878  164.6688 C.3     1  UNL1        0.0277
      5 C         141.4669  139.1763  165.5008 C.2     1  UNL1       -0.0062
      6 C         140.1028  139.2367  164.8799 C.2     1  UNL1        0.0689
      7 N         139.1276  139.6488  165.9426 N.2     1  UNL1       -0.2526
      8 C         139.8890  139.8430  167.2203 C.2     1  UNL1        0.0627
      9 C         139.4528  140.2481  168.5970 C.3     1  UNL1        0.0722
     10 C         140.4623  140.3612  169.7008 C.2     1  UNL1       -0.0131
     11 C         141.9080  140.0691  169.4277 C.2     1  UNL1        0.0307
     12 BR        142.9175  140.1822  170.5314 Br      1  UNL1       -0.0493
     13 C         142.3443  139.6641  168.0509 C.2     1  UNL1        0.0073
     14 C         141.3348  139.5510  166.9472 C.2     1  UNL1        0.0116
     15 N         138.5606  138.9691  162.8062 N.3     1  UNL1       -0.2915
     16 H         138.4930  138.1778  162.1662 H       1  UNL1        0.1238
     17 C         137.4534  140.0348  160.7114 C.3     1  UNL1        0.0220
     18 C         138.1402  140.1859  162.0363 C.3     1  UNL1        0.0771
     19 C         138.4067  141.5537  162.5913 C.ar    1  UNL1       -0.0080
     20 C         139.5567  142.3636  162.0701 C.ar    1  UNL1       -0.0030
     21 C         139.8232  143.7314  162.6250 C.ar    1  UNL1       -0.0003
     22 C         138.9398  144.2893  163.7013 C.ar    1  UNL1       -0.0000
     23 C         137.7899  143.4794  164.2225 C.ar    1  UNL1       -0.0003
     24 C         137.5233  142.1116  163.6675 C.ar    1  UNL1       -0.0030
@<TRIPOS>BOND
     1    18    17    1
     2    18    15    1
     3     1    15    1
     4     1     2    1
     5     2     3    1
     6     3     4    1
     7     4     5    1
     8     5     6    2
     9     6     7    1
    10     7     8    2
    11     8     9    1
    12     9    10    1
    13    10    11    2
    14    11    12    1
    15    11    13    1
    16    13    14    2
    17    18    19    1
    18    19    20   ar
    19    20    21   ar
    20    21    22   ar
    21    22    23   ar
    22    23    24   ar
    23     6     1    1
    24    14     8    1
    25    24    19   ar
    26    14     5    1
    27    15    16    1
@<TRIPOS>MOLECULE
*****
 24 27 0 0 0
SMALL
GASTEIGER

@<TRIPOS>ATOM
      1 C         138.2016  140.0804  163.1453 C.3     1  UNL1        0.0947
      2 C         138.2242  138.6355  162.7435 C.3     1  UNL1        0.0222
      3 C         138.9828  137.6392  163.5692 C.3     1  UNL1        0.0065
      4 C         139.7189  138.0879  164.7967 C.3     1  UNL1        0.0277
      5 C         139.6964  139.5328  165.1985 C.2     1  UNL1       -0.0062
      6 C         138.9378  140.5291  164.3728 C.2     1  UNL1        0.0689
      7 N         139.0951  141.8769  165.0123 N.2     1  UNL1       -0.2526
      8 C         139.9510  141.7135  166.2332 C.2     1  UNL1        0.0627
      9 C         140.4401  142.6967  167.2551 C.3     1  UNL1        0.0722
     10 C         141.3007  142.2312  168.3921 C.2     1  UNL1       -0.0131
     11 C         141.6723  140.7825  168.5072 C.2     1  UNL1        0.0307
     12 BR        142.5329  140.3170  169.6441 Br      1  UNL1       -0.0493
     13 C         141.1832  139.7993  167.4853 C.2     1  UNL1        0.0073
     14 C         140.3226  140.2648  166.3483 C.2     1  UNL1        0.0116
     15 N         137.4430  141.0768  162.3196 N.3     1  UNL1       -0.2915
     16 H         136.6304  140.5890  161.9426 H       1  UNL1        0.1238
     17 C         138.1786  141.0798  159.8278 C.3     1  UNL1        0.0220
     18 C         138.1134  141.7586  161.1638 C.3     1  UNL1        0.0771
     19 C         138.7187  143.1192  161.3442 C.ar    1  UNL1       -0.0080
     20 C         139.7153  143.6346  160.3486 C.ar    1  UNL1       -0.0030
     21 C         140.3205  144.9952  160.5289 C.ar    1  UNL1       -0.0003
     22 C         139.9292  145.8403  161.7047 C.ar    1  UNL1       -0.0000
     23 C         138.9326  145.3248  162.7003 C.ar    1  UNL1       -0.0003
     24 C         138.3273  143.9643  162.5200 C.ar    1  UNL1       -0.0030
@<TRIPOS>BOND
     1    18    17    1
     2    18    15    1
     3     1    15    1
     4     1     2    1
     5     2     3    1
     6     3     4    1
     7     4     5    1
     8     5     6    2
     9     6     7    1
    10     7     8    2
    11     8     9    1
    12     9    10    1
    13    10    11    2
    14    11    12    1
    15    11    13    1
    16    13    14    2
    17    18    19    1
    18    19    20   ar
    19    20    21   ar
    20    21    22   ar
    21    22    23   ar
    22    23    24   ar
    23     6     1    1
    24    14     8    1
    25    24    19   ar
    26    14     5    1
    27    15    16    1
@<TRIPOS>MOLECULE
*****
 24 27 0 0 0
SMALL
GASTEIGER

@<TRIPOS>ATOM
      1 C         140.1038  141.3850  167.1989 C.3     1  UNL1        0.0947
      2 C         139.5212  140.2917  168.0445 C.3     1  UNL1        0.0222
      3 C         138.6163  139.2672  167.4267 C.3     1  UNL1        0.0065
      4 C         138.2942  139.3361  165.9633 C.3     1  UNL1        0.0277
      5 C         138.8768  140.4294  165.1177 C.2     1  UNL1       -0.0062
      6 C         139.7817  141.4539  165.7355 C.2     1  UNL1        0.0689
      7 N         140.2044  142.4087  164.6586 N.2     1  UNL1       -0.2526
      8 C         139.5608  141.9743  163.3752 C.2     1  UNL1        0.0627
      9 C         139.6158  142.5346  161.9849 C.3     1  UNL1        0.0722
     10 C         138.8503  141.8716  160.8782 C.2     1  UNL1       -0.0131
     11 C         138.0298  140.6483  161.1620 C.2     1  UNL1        0.0307
     12 BR        137.2644  139.9853  160.0554 Br      1  UNL1       -0.0493
     13 C         137.9749  140.0881  162.5524 C.2     1  UNL1        0.0073
     14 C         138.7403  140.7511  163.6590 C.2     1  UNL1        0.0116
     15 N         141.0087  142.4095  167.8167 N.3     1  UNL1       -0.2915
     16 H         140.8509  143.2830  167.3142 H       1  UNL1        0.1238
     17 C         143.2413  142.2535  169.1361 C.3     1  UNL1        0.0220
     18 C         142.4916  142.1846  167.8388 C.3     1  UNL1        0.0771
     19 C         143.2247  141.8906  166.5635 C.ar    1  UNL1       -0.0080
     20 C         143.2402  140.4959  166.0117 C.ar    1  UNL1       -0.0030
     21 C         143.9733  140.2020  164.7365 C.ar    1  UNL1       -0.0003
     22 C         144.6908  141.3028  164.0132 C.ar    1  UNL1       -0.0000
     23 C         144.6753  142.6975  164.5650 C.ar    1  UNL1       -0.0003
     24 C         143.9422  142.9914  165.8402 C.ar    1  UNL1       -0.0030
@<TRIPOS>BOND
     1    18    17    1
     2    18    15    1
     3     1    15    1
     4     1     2    1
     5     2     3    1
     6     3     4    1
     7     4     5    1
     8     5     6    2
     9     6     7    1
    10     7     8    2
    11     8     9    1
    12     9    10    1
    13    10    11    2
    14    11    12    1
    15    11    13    1
    16    13    14    2
    17    18    19    1
    18    19    20   ar
    19    20    21   ar
    20    21    22   ar
    21    22    23   ar
    22    23    24   ar
    23     6     1    1
    24    14     8    1
    25    24    19   ar
    26    14     5    1
    27    15    16    1
@<TRIPOS>MOLECULE
*****
 24 27 0 0 0
SMALL
GASTEIGER

@<TRIPOS>ATOM
      1 C         139.7799  143.0032  162.4301 C.3     1  UNL1        0.0947
      2 C         138.4106  143.6080  162.3336 C.3     1  UNL1        0.0222
      3 C         137.6757  144.0030  163.5801 C.3     1  UNL1        0.0065
      4 C         138.3100  143.7932  164.9231 C.3     1  UNL1        0.0277
      5 C         139.6792  143.1884  165.0196 C.2     1  UNL1       -0.0062
      6 C         140.4142  142.7934  163.7731 C.2     1  UNL1        0.0689
      7 N         141.7415  142.2240  164.1783 N.2     1  UNL1       -0.2526
      8 C         141.8268  142.2672  165.6753 C.2     1  UNL1        0.0627
      9 C         142.9004  141.8407  166.6321 C.3     1  UNL1        0.0722
     10 C         142.6995  142.0103  168.1089 C.2     1  UNL1       -0.0131
     11 C         141.4250  142.6063  168.6289 C.2     1  UNL1        0.0307
     12 BR        141.2240  142.7759  170.1056 Br      1  UNL1       -0.0493
     13 C         140.3514  143.0328  167.6720 C.2     1  UNL1        0.0073
     14 C         140.5523  142.8632  166.1952 C.2     1  UNL1        0.0116
     15 N         140.5149  142.6081  161.1836 N.3     1  UNL1       -0.2915
     16 H         140.3878  143.3669  160.5139 H       1  UNL1        0.1238
     17 C         140.1194  141.3022  158.9727 C.3     1  UNL1        0.0220
     18 C         140.1555  141.3376  160.4718 C.3     1  UNL1        0.0771
     19 C         139.8322  140.1025  161.2593 C.ar    1  UNL1       -0.0080
     20 C         140.9178  139.3801  162.0006 C.ar    1  UNL1       -0.0030
     21 C         140.5946  138.1450  162.7880 C.ar    1  UNL1       -0.0003
     22 C         139.1857  137.6323  162.8341 C.ar    1  UNL1       -0.0000
     23 C         138.1001  138.3547  162.0928 C.ar    1  UNL1       -0.0003
     24 C         138.4233  139.5898  161.3054 C.ar    1  UNL1       -0.0030
@<TRIPOS>BOND
     1    18    17    1
     2    18    15    1
     3     1    15    1
     4     1     2    1
     5     2     3    1
     6     3     4    1
     7     4     5    1
     8     5     6    2
     9     6     7    1
    10     7     8    2
    11     8     9    1
    12     9    10    1
    13    10    11    2
    14    11    12    1
    15    11    13    1
    16    13    14    2
    17    18    19    1
    18    19    20   ar
    19    20    21   ar
    20    21    22   ar
    21    22    23   ar
    22    23    24   ar
    23     6     1    1
    24    14     8    1
    25    24    19   ar
    26    14     5    1
    27    15    16    1
@<TRIPOS>MOLECULE
*****
 24 27 0 0 0
SMALL
GASTEIGER

@<TRIPOS>ATOM
      1 C         142.3127  142.5099  166.5246 C.3     1  UNL1        0.0947
      2 C         143.7629  142.8709  166.6519 C.3     1  UNL1        0.0222
      3 C         144.4712  143.5432  165.5134 C.3     1  UNL1        0.0065
      4 C         143.7292  143.8544  164.2474 C.3     1  UNL1        0.0277
      5 C         142.2789  143.4933  164.1201 C.2     1  UNL1       -0.0062
      6 C         141.5707  142.8211  165.2586 C.2     1  UNL1        0.0689
      7 N         140.1479  142.5860  164.8455 N.2     1  UNL1       -0.2526
      8 C         139.9770  143.1129  163.4515 C.2     1  UNL1        0.0627
      9 C         138.7922  143.1546  162.5325 C.3     1  UNL1        0.0722
     10 C         138.9245  143.7570  161.1651 C.2     1  UNL1       -0.0131
     11 C         140.2415  144.3178  160.7168 C.2     1  UNL1        0.0307
     12 BR        140.3738  144.9202  159.3495 Br      1  UNL1       -0.0493
     13 C         141.4263  144.2761  161.6359 C.2     1  UNL1        0.0073
     14 C         141.2940  143.6737  163.0032 C.2     1  UNL1        0.0116
     15 N         141.6043  141.8377  167.6632 N.3     1  UNL1       -0.2915
     16 H         142.0505  142.1630  168.5208 H       1  UNL1        0.1238
     17 C         142.4252  139.6133  168.7255 C.3     1  UNL1        0.0220
     18 C         141.5597  140.3403  167.7394 C.3     1  UNL1        0.0771
     19 C         140.6495  139.5698  166.8294 C.ar    1  UNL1       -0.0080
     20 C         139.1730  139.5430  167.0926 C.ar    1  UNL1       -0.0030
     21 C         138.2628  138.7726  166.1827 C.ar    1  UNL1       -0.0003
     22 C         138.8291  138.0289  165.0096 C.ar    1  UNL1       -0.0000
     23 C         140.3056  138.0557  164.7464 C.ar    1  UNL1       -0.0003
     24 C         141.2158  138.8261  165.6563 C.ar    1  UNL1       -0.0030
@<TRIPOS>BOND
     1    18    17    1
     2    18    15    1
     3     1    15    1
     4     1     2    1
     5     2     3    1
     6     3     4    1
     7     4     5    1
     8     5     6    2
     9     6     7    1
    10     7     8    2
    11     8     9    1
    12     9    10    1
    13    10    11    2
    14    11    12    1
    15    11    13    1
    16    13    14    2
    17    18    19    1
    18    19    20   ar
    19    20    21   ar
    20    21    22   ar
    21    22    23   ar
    22    23    24   ar
    23     6     1    1
    24    14     8    1
    25    24    19   ar
    26    14     5    1
    27    15    16    1
