@<TRIPOS>MOLECULE
*****
 36 39 0 0 0
SMALL
GASTEIGER

@<TRIPOS>ATOM
      1 C         139.0627  138.3992  164.0162 C.ar    1  UNL1        0.1534
      2 C         138.5391  138.2061  165.4085 C.ar    1  UNL1        0.0591
      3 C         138.9241  139.1664  166.4946 C.ar    1  UNL1        0.1072
      4 N         138.4004  138.9731  167.8869 N.ar    1  UNL1       -0.1477
      5 N         138.7854  139.9335  168.9730 N.ar    1  UNL1       -0.1421
      6 C         139.6940  141.0870  168.6667 C.ar    1  UNL1        0.1690
      7 C         140.2177  141.2802  167.2745 C.ar    1  UNL1        0.0740
      8 C         139.8327  140.3199  166.1884 C.ar    1  UNL1        0.0359
      9 C         140.3563  140.5131  164.7961 C.ar    1  UNL1        0.0204
     10 C         139.9713  139.5528  163.7100 C.ar    1  UNL1        0.0825
     11 N         140.4950  139.7460  162.3177 N.pl3   1  UNL1       -0.3024
     12 C         141.4701  138.7634  161.7401 C.3     1  UNL1        0.1065
     13 C         141.9938  138.9566  160.3479 C.3     1  UNL1        0.0741
     14 C         142.9689  137.9740  159.7703 C.3     1  UNL1        0.0189
     15 N         141.5424  140.1324  159.5332 N.3     1  UNL1       -0.2969
     16 C         140.5672  141.1150  160.1108 C.3     1  UNL1        0.0741
     17 C         140.1158  142.2908  159.2961 C.3     1  UNL1        0.0189
     18 C         140.0436  140.9218  161.5031 C.3     1  UNL1        0.1065
     19 H         141.1156  139.7573  158.6861 H       1  UNL1        0.1233
     20 C         140.0790  142.0473  169.7528 C.2     1  UNL1        0.2635
     21 N         140.4372  141.5336  171.1159 N.am    1  UNL1       -0.3240
     22 O         140.1058  143.5213  169.4759 O.2     1  UNL1       -0.2686
     23 H         140.4196  140.5662  171.2976 H       1  UNL1        0.1453
     24 H         140.6899  142.1639  171.8287 H       1  UNL1        0.1453
     25 C         137.7827  137.8889  161.8137 C.3     1  UNL1        0.2525
     26 O         138.6777  137.4389  162.9301 O.3     1  UNL1       -0.4701
     27 N         141.1263  142.4337  166.9683 N.pl3   1  UNL1       -0.3094
     28 H         141.9022  142.6160  167.5462 H       1  UNL1        0.1523
     29 C         140.8527  143.3095  165.7816 C.ar    1  UNL1        0.0761
     30 C         139.5024  143.9398  165.6100 C.ar    1  UNL1        0.0166
     31 C         139.2288  144.8156  164.4234 C.ar    1  UNL1       -0.0028
     32 C         140.3055  145.0611  163.4082 C.ar    1  UNL1       -0.0195
     33 C         140.0319  145.9369  162.2216 C.3     1  UNL1        0.0311
     34 C         141.6558  144.4308  163.5798 C.ar    1  UNL1        0.0267
     35 C         141.9294  143.5550  164.7665 C.ar    1  UNL1        0.1531
     36 F         143.2797  142.9247  164.9381 F       1  UNL1       -0.2029
@<TRIPOS>BOND
     1    25    26    1
     2    26     1    1
     3     1     2   ar
     4     2     3   ar
     5     3     4   ar
     6     4     5   ar
     7     5     6   ar
     8     6    20    1
     9    20    21   am
    10    20    22    2
    11     6     7   ar
    12     7    27    1
    13    27    29    1
    14    29    30   ar
    15    30    31   ar
    16    31    32   ar
    17    32    33    1
    18    32    34   ar
    19    34    35   ar
    20    35    36    1
    21     7     8   ar
    22     8     9   ar
    23     9    10   ar
    24    10    11    1
    25    11    12    1
    26    12    13    1
    27    13    14    1
    28    13    15    1
    29    15    16    1
    30    16    17    1
    31    16    18    1
    32    10     1   ar
    33    18    11    1
    34     8     3   ar
    35    35    29   ar
    36    21    23    1
    37    21    24    1
    38    27    28    1
    39    15    19    1
@<TRIPOS>MOLECULE
*****
 36 39 0 0 0
SMALL
GASTEIGER

@<TRIPOS>ATOM
      1 C         139.0366  139.0501  166.5288 C.ar    1  UNL1        0.1534
      2 C         138.5558  138.3799  165.2759 C.ar    1  UNL1        0.0591
      3 C         139.4369  138.3371  164.0627 C.ar    1  UNL1        0.1072
      4 N         138.9561  137.6670  162.8098 N.ar    1  UNL1       -0.1477
      5 N         139.8372  137.6241  161.5966 N.ar    1  UNL1       -0.1421
      6 C         141.1992  138.2515  161.6364 C.ar    1  UNL1        0.1690
      7 C         141.6800  138.9216  162.8892 C.ar    1  UNL1        0.0740
      8 C         140.7989  138.9644  164.1024 C.ar    1  UNL1        0.0359
      9 C         141.2797  139.6345  165.3553 C.ar    1  UNL1        0.0204
     10 C         140.3986  139.6774  166.5684 C.ar    1  UNL1        0.0825
     11 N         140.8794  140.3475  167.8213 N.pl3   1  UNL1       -0.3024
     12 C         140.4074  141.7303  168.1608 C.3     1  UNL1        0.1065
     13 C         140.8882  142.4004  169.4137 C.3     1  UNL1        0.0741
     14 C         140.4162  143.7832  169.7531 C.3     1  UNL1        0.0189
     15 N         141.8411  141.6879  170.3271 N.3     1  UNL1       -0.2969
     16 C         142.3132  140.3052  169.9876 C.3     1  UNL1        0.0741
     17 C         143.2661  139.5926  170.9010 C.3     1  UNL1        0.0189
     18 C         141.8323  139.6350  168.7347 C.3     1  UNL1        0.1065
     19 H         141.3867  141.6285  171.2383 H       1  UNL1        0.1233
     20 C         142.0803  138.2086  160.4232 C.2     1  UNL1        0.2635
     21 N         141.5531  138.6699  159.0967 N.am    1  UNL1       -0.3240
     22 O         143.4885  137.7046  160.5364 O.2     1  UNL1       -0.2686
     23 H         140.6288  139.0007  159.0224 H       1  UNL1        0.1453
     24 H         142.1314  138.6418  158.3004 H       1  UNL1        0.1453
     25 C         137.0261  138.1161  167.8834 C.3     1  UNL1        0.2525
     26 O         138.1555  139.0929  167.7419 O.3     1  UNL1       -0.4701
     27 N         143.0419  139.5489  162.9289 N.pl3   1  UNL1       -0.3094
     28 H         143.8437  138.9937  162.7945 H       1  UNL1        0.1523
     29 C         143.1822  141.0222  163.1733 C.ar    1  UNL1        0.0761
     30 C         142.1817  141.9774  162.5931 C.ar    1  UNL1        0.0166
     31 C         142.3220  143.4506  162.8374 C.ar    1  UNL1       -0.0028
     32 C         143.4628  143.9688  163.6622 C.ar    1  UNL1       -0.0195
     33 C         143.6031  145.4421  163.9065 C.3     1  UNL1        0.0311
     34 C         144.4633  143.0137  164.2424 C.ar    1  UNL1        0.0267
     35 C         144.3230  141.5404  163.9980 C.ar    1  UNL1        0.1531
     36 F         145.3235  140.5852  164.5783 F       1  UNL1       -0.2029
@<TRIPOS>BOND
     1    25    26    1
     2    26     1    1
     3     1     2   ar
     4     2     3   ar
     5     3     4   ar
     6     4     5   ar
     7     5     6   ar
     8     6    20    1
     9    20    21   am
    10    20    22    2
    11     6     7   ar
    12     7    27    1
    13    27    29    1
    14    29    30   ar
    15    30    31   ar
    16    31    32   ar
    17    32    33    1
    18    32    34   ar
    19    34    35   ar
    20    35    36    1
    21     7     8   ar
    22     8     9   ar
    23     9    10   ar
    24    10    11    1
    25    11    12    1
    26    12    13    1
    27    13    14    1
    28    13    15    1
    29    15    16    1
    30    16    17    1
    31    16    18    1
    32    10     1   ar
    33    18    11    1
    34     8     3   ar
    35    35    29   ar
    36    21    23    1
    37    21    24    1
    38    27    28    1
    39    15    19    1
@<TRIPOS>MOLECULE
*****
 36 39 0 0 0
SMALL
GASTEIGER

@<TRIPOS>ATOM
      1 C         139.0775  138.3923  164.1249 C.ar    1  UNL1        0.1534
      2 C         138.3157  138.2442  165.4085 C.ar    1  UNL1        0.0591
      3 C         138.7586  138.9880  166.6336 C.ar    1  UNL1        0.1072
      4 N         137.9968  138.8398  167.9172 N.ar    1  UNL1       -0.1477
      5 N         138.4396  139.5836  169.1423 N.ar    1  UNL1       -0.1421
      6 C         139.6443  140.4755  169.0836 C.ar    1  UNL1        0.1690
      7 C         140.4060  140.6237  167.7999 C.ar    1  UNL1        0.0740
      8 C         139.9632  139.8799  166.5749 C.ar    1  UNL1        0.0359
      9 C         140.7249  140.0280  165.2913 C.ar    1  UNL1        0.0204
     10 C         140.2820  139.2842  164.0663 C.ar    1  UNL1        0.0825
     11 N         141.0438  139.4324  162.7826 N.pl3   1  UNL1       -0.3024
     12 C         141.0684  140.7539  162.0733 C.3     1  UNL1        0.1065
     13 C         141.8302  140.9021  160.7897 C.3     1  UNL1        0.0741
     14 C         141.8548  142.2236  160.0804 C.3     1  UNL1        0.0189
     15 N         142.5673  139.7287  160.2152 N.3     1  UNL1       -0.2969
     16 C         142.5427  138.4072  160.9245 C.3     1  UNL1        0.0741
     17 C         143.2799  137.2339  160.3501 C.3     1  UNL1        0.0189
     18 C         141.7809  138.2591  162.2082 C.3     1  UNL1        0.1065
     19 H         143.5465  140.0043  160.1400 H       1  UNL1        0.1233
     20 C         140.0871  141.2193  170.3086 C.2     1  UNL1        0.2635
     21 N         140.4891  140.4636  171.5405 N.am    1  UNL1       -0.3240
     22 O         140.1280  142.7187  170.3018 O.2     1  UNL1       -0.2686
     23 H         140.4623  139.4795  171.5449 H       1  UNL1        0.1453
     24 H         140.7798  140.9518  172.3445 H       1  UNL1        0.1453
     25 C         137.8356  138.3520  161.8432 C.3     1  UNL1        0.2525
     26 O         138.6346  137.6485  162.8999 O.3     1  UNL1       -0.4701
     27 N         141.6106  141.5156  167.7413 N.pl3   1  UNL1       -0.3094
     28 H         142.2004  141.5983  168.5252 H       1  UNL1        0.1523
     29 C         141.9164  142.2815  166.4883 C.ar    1  UNL1        0.0761
     30 C         143.2662  142.1596  165.8455 C.ar    1  UNL1        0.0166
     31 C         143.5721  142.9255  164.5926 C.ar    1  UNL1       -0.0028
     32 C         142.5282  143.8132  163.9824 C.ar    1  UNL1       -0.0195
     33 C         142.8341  144.5791  162.7295 C.3     1  UNL1        0.0311
     34 C         141.1784  143.9351  164.6252 C.ar    1  UNL1        0.0267
     35 C         140.8726  143.1692  165.8782 C.ar    1  UNL1        0.1531
     36 F         139.5228  143.2910  166.5210 F       1  UNL1       -0.2029
@<TRIPOS>BOND
     1    25    26    1
     2    26     1    1
     3     1     2   ar
     4     2     3   ar
     5     3     4   ar
     6     4     5   ar
     7     5     6   ar
     8     6    20    1
     9    20    21   am
    10    20    22    2
    11     6     7   ar
    12     7    27    1
    13    27    29    1
    14    29    30   ar
    15    30    31   ar
    16    31    32   ar
    17    32    33    1
    18    32    34   ar
    19    34    35   ar
    20    35    36    1
    21     7     8   ar
    22     8     9   ar
    23     9    10   ar
    24    10    11    1
    25    11    12    1
    26    12    13    1
    27    13    14    1
    28    13    15    1
    29    15    16    1
    30    16    17    1
    31    16    18    1
    32    10     1   ar
    33    18    11    1
    34     8     3   ar
    35    35    29   ar
    36    21    23    1
    37    21    24    1
    38    27    28    1
    39    15    19    1
@<TRIPOS>MOLECULE
*****
 36 39 0 0 0
SMALL
GASTEIGER

@<TRIPOS>ATOM
      1 C         143.3569  142.9603  164.4142 C.ar    1  UNL1        0.1534
      2 C         143.8211  142.8471  165.8361 C.ar    1  UNL1        0.0591
      3 C         142.9150  142.2577  166.8761 C.ar    1  UNL1        0.1072
      4 N         143.3792  142.1445  168.2980 N.ar    1  UNL1       -0.1477
      5 N         142.4732  141.5550  169.3381 N.ar    1  UNL1       -0.1421
      6 C         141.1030  141.0788  168.9562 C.ar    1  UNL1        0.1690
      7 C         140.6389  141.1920  167.5343 C.ar    1  UNL1        0.0740
      8 C         141.5449  141.7814  166.4943 C.ar    1  UNL1        0.0359
      9 C         141.0808  141.8947  165.0725 C.ar    1  UNL1        0.0204
     10 C         141.9868  142.4841  164.0324 C.ar    1  UNL1        0.0825
     11 N         141.5226  142.5973  162.6105 N.pl3   1  UNL1       -0.3024
     12 C         141.2074  143.9438  162.0294 C.3     1  UNL1        0.1065
     13 C         140.7432  144.0570  160.6076 C.3     1  UNL1        0.0741
     14 C         140.4280  145.4035  160.0265 C.3     1  UNL1        0.0189
     15 N         140.5942  142.8238  159.7667 N.3     1  UNL1       -0.2969
     16 C         140.9094  141.4773  160.3478 C.3     1  UNL1        0.0741
     17 C         140.7604  140.2441  159.5071 C.3     1  UNL1        0.0189
     18 C         141.3736  141.3641  161.7697 C.3     1  UNL1        0.1065
     19 H         141.2021  142.9445  158.9566 H       1  UNL1        0.1233
     20 C         140.1970  140.4893  169.9962 C.2     1  UNL1        0.2635
     21 N         140.6564  139.3196  170.8152 N.am    1  UNL1       -0.3240
     22 O         138.8315  141.0695  170.2173 O.2     1  UNL1       -0.2686
     23 H         141.5526  138.9388  170.6702 H       1  UNL1        0.1453
     24 H         140.0618  138.9327  171.4979 H       1  UNL1        0.1453
     25 C         144.9878  142.6525  162.4154 C.3     1  UNL1        0.2525
     26 O         144.2630  143.5498  163.3742 O.3     1  UNL1       -0.4701
     27 N         139.2687  140.7158  167.1525 N.pl3   1  UNL1       -0.3094
     28 H         138.5105  140.8562  167.7646 H       1  UNL1        0.1523
     29 C         139.0538  140.0255  165.8382 C.ar    1  UNL1        0.0761
     30 C         139.6166  138.6539  165.6105 C.ar    1  UNL1        0.0166
     31 C         139.4017  137.9636  164.2963 C.ar    1  UNL1       -0.0028
     32 C         138.6240  138.6450  163.2095 C.ar    1  UNL1       -0.0195
     33 C         138.4091  137.9548  161.8953 C.3     1  UNL1        0.0311
     34 C         138.0612  140.0167  163.4372 C.ar    1  UNL1        0.0267
     35 C         138.2761  140.7069  164.7515 C.ar    1  UNL1        0.1531
     36 F         137.7133  142.0786  164.9792 F       1  UNL1       -0.2029
@<TRIPOS>BOND
     1    25    26    1
     2    26     1    1
     3     1     2   ar
     4     2     3   ar
     5     3     4   ar
     6     4     5   ar
     7     5     6   ar
     8     6    20    1
     9    20    21   am
    10    20    22    2
    11     6     7   ar
    12     7    27    1
    13    27    29    1
    14    29    30   ar
    15    30    31   ar
    16    31    32   ar
    17    32    33    1
    18    32    34   ar
    19    34    35   ar
    20    35    36    1
    21     7     8   ar
    22     8     9   ar
    23     9    10   ar
    24    10    11    1
    25    11    12    1
    26    12    13    1
    27    13    14    1
    28    13    15    1
    29    15    16    1
    30    16    17    1
    31    16    18    1
    32    10     1   ar
    33    18    11    1
    34     8     3   ar
    35    35    29   ar
    36    21    23    1
    37    21    24    1
    38    27    28    1
    39    15    19    1
@<TRIPOS>MOLECULE
*****
 36 39 0 0 0
SMALL
GASTEIGER

@<TRIPOS>ATOM
      1 C         143.4733  143.0127  164.3315 C.ar    1  UNL1        0.1534
      2 C         143.9419  142.9401  165.7545 C.ar    1  UNL1        0.0591
      3 C         143.0300  142.4042  166.8181 C.ar    1  UNL1        0.1072
      4 N         143.4987  142.3316  168.2412 N.ar    1  UNL1       -0.1477
      5 N         142.5867  141.7957  169.3048 N.ar    1  UNL1       -0.1421
      6 C         141.2061  141.3324  168.9452 C.ar    1  UNL1        0.1690
      7 C         140.7374  141.4050  167.5222 C.ar    1  UNL1        0.0740
      8 C         141.6494  141.9409  166.4586 C.ar    1  UNL1        0.0359
      9 C         141.1807  142.0135  165.0356 C.ar    1  UNL1        0.0204
     10 C         142.0927  142.5494  163.9721 C.ar    1  UNL1        0.0825
     11 N         141.6239  142.6220  162.5490 N.pl3   1  UNL1       -0.3024
     12 C         141.4319  141.3624  161.7574 C.3     1  UNL1        0.1065
     13 C         140.9632  141.4350  160.3344 C.3     1  UNL1        0.0741
     14 C         140.7712  140.1754  159.5429 C.3     1  UNL1        0.0189
     15 N         140.6865  142.7672  159.7029 N.3     1  UNL1       -0.2969
     16 C         140.8785  144.0268  160.4944 C.3     1  UNL1        0.0741
     17 C         140.6019  145.3589  159.8630 C.3     1  UNL1        0.0189
     18 C         141.3473  143.9542  161.9175 C.3     1  UNL1        0.1065
     19 H         139.7118  142.7539  159.4025 H       1  UNL1        0.1233
     20 C         140.2941  140.7965  170.0088 C.2     1  UNL1        0.2635
     21 N         140.6102  139.4932  170.6808 N.am    1  UNL1       -0.3240
     22 O         139.0662  141.5638  170.4003 O.2     1  UNL1       -0.2686
     23 H         141.4161  138.9895  170.4238 H       1  UNL1        0.1453
     24 H         140.0116  139.1414  171.3789 H       1  UNL1        0.1453
     25 C         145.0914  142.6049  162.3402 C.3     1  UNL1        0.2525
     26 O         144.3852  143.5486  163.2680 O.3     1  UNL1       -0.4701
     27 N         139.3568  140.9417  167.1627 N.pl3   1  UNL1       -0.3094
     28 H         138.6004  141.1371  167.7619 H       1  UNL1        0.1523
     29 C         139.1286  140.1807  165.8904 C.ar    1  UNL1        0.0761
     30 C         139.7209  138.8135  165.7177 C.ar    1  UNL1        0.0166
     31 C         139.4927  138.0525  164.4454 C.ar    1  UNL1       -0.0028
     32 C         138.6721  138.6587  163.3457 C.ar    1  UNL1       -0.0195
     33 C         138.4439  137.8977  162.0734 C.3     1  UNL1        0.0311
     34 C         138.0798  140.0259  163.5184 C.ar    1  UNL1        0.0267
     35 C         138.3081  140.7870  164.7908 C.ar    1  UNL1        0.1531
     36 F         137.7158  142.1542  164.9634 F       1  UNL1       -0.2029
@<TRIPOS>BOND
     1    25    26    1
     2    26     1    1
     3     1     2   ar
     4     2     3   ar
     5     3     4   ar
     6     4     5   ar
     7     5     6   ar
     8     6    20    1
     9    20    21   am
    10    20    22    2
    11     6     7   ar
    12     7    27    1
    13    27    29    1
    14    29    30   ar
    15    30    31   ar
    16    31    32   ar
    17    32    33    1
    18    32    34   ar
    19    34    35   ar
    20    35    36    1
    21     7     8   ar
    22     8     9   ar
    23     9    10   ar
    24    10    11    1
    25    11    12    1
    26    12    13    1
    27    13    14    1
    28    13    15    1
    29    15    16    1
    30    16    17    1
    31    16    18    1
    32    10     1   ar
    33    18    11    1
    34     8     3   ar
    35    35    29   ar
    36    21    23    1
    37    21    24    1
    38    27    28    1
    39    15    19    1
@<TRIPOS>MOLECULE
*****
 36 39 0 0 0
SMALL
GASTEIGER

@<TRIPOS>ATOM
      1 C         139.1402  139.1566  159.9541 C.ar    1  UNL1        0.1534
      2 C         139.0738  138.0609  160.9762 C.ar    1  UNL1        0.0591
      3 C         138.9720  138.4001  162.4338 C.ar    1  UNL1        0.1072
      4 N         138.9055  137.3043  163.4560 N.ar    1  UNL1       -0.1477
      5 N         138.8038  137.6436  164.9136 N.ar    1  UNL1       -0.1421
      6 C         138.7686  139.0786  165.3490 C.ar    1  UNL1        0.1690
      7 C         138.8351  140.1743  164.3268 C.ar    1  UNL1        0.0740
      8 C         138.9368  139.8351  162.8692 C.ar    1  UNL1        0.0359
      9 C         139.0033  140.9308  161.8470 C.ar    1  UNL1        0.0204
     10 C         139.1050  140.5916  160.3895 C.ar    1  UNL1        0.0825
     11 N         139.1715  141.6874  159.3672 N.pl3   1  UNL1       -0.3024
     12 C         138.1168  141.7875  158.3054 C.3     1  UNL1        0.1065
     13 C         138.1833  142.8832  157.2832 C.3     1  UNL1        0.0741
     14 C         137.1285  142.9833  156.2213 C.3     1  UNL1        0.0189
     15 N         139.3045  143.8790  157.3229 N.3     1  UNL1       -0.2969
     16 C         140.3592  143.7789  158.3847 C.3     1  UNL1        0.0741
     17 C         141.4804  144.7745  158.4244 C.3     1  UNL1        0.0189
     18 C         140.2927  142.6831  159.4069 C.3     1  UNL1        0.1065
     19 H         138.8770  144.8001  157.4183 H       1  UNL1        0.1233
     20 C         138.6669  139.4178  166.8066 C.2     1  UNL1        0.2635
     21 N         137.7031  138.6752  167.6840 N.am    1  UNL1       -0.3240
     22 O         139.5288  140.4997  167.3868 O.2     1  UNL1       -0.2686
     23 H         137.1374  137.9651  167.3032 H       1  UNL1        0.1453
     24 H         137.6364  138.8978  168.6407 H       1  UNL1        0.1453
     25 C         140.5872  138.6044  157.8681 C.3     1  UNL1        0.2525
     26 O         139.2420  138.8174  158.4965 O.3     1  UNL1       -0.4701
     27 N         138.7999  141.6093  164.7622 N.pl3   1  UNL1       -0.3094
     28 H         137.9890  141.9762  165.1831 H       1  UNL1        0.1523
     29 C         140.0001  142.4852  164.5564 C.ar    1  UNL1        0.0761
     30 C         141.3788  141.9230  164.7379 C.ar    1  UNL1        0.0166
     31 C         142.5790  142.7989  164.5320 C.ar    1  UNL1       -0.0028
     32 C         142.4004  144.2370  164.1446 C.ar    1  UNL1       -0.0195
     33 C         143.6006  145.1129  163.9388 C.3     1  UNL1        0.0311
     34 C         141.0217  144.7992  163.9631 C.ar    1  UNL1        0.0267
     35 C         139.8215  143.9233  164.1690 C.ar    1  UNL1        0.1531
     36 F         138.4427  144.4854  163.9875 F       1  UNL1       -0.2029
@<TRIPOS>BOND
     1    25    26    1
     2    26     1    1
     3     1     2   ar
     4     2     3   ar
     5     3     4   ar
     6     4     5   ar
     7     5     6   ar
     8     6    20    1
     9    20    21   am
    10    20    22    2
    11     6     7   ar
    12     7    27    1
    13    27    29    1
    14    29    30   ar
    15    30    31   ar
    16    31    32   ar
    17    32    33    1
    18    32    34   ar
    19    34    35   ar
    20    35    36    1
    21     7     8   ar
    22     8     9   ar
    23     9    10   ar
    24    10    11    1
    25    11    12    1
    26    12    13    1
    27    13    14    1
    28    13    15    1
    29    15    16    1
    30    16    17    1
    31    16    18    1
    32    10     1   ar
    33    18    11    1
    34     8     3   ar
    35    35    29   ar
    36    21    23    1
    37    21    24    1
    38    27    28    1
    39    15    19    1
@<TRIPOS>MOLECULE
*****
 36 39 0 0 0
SMALL
GASTEIGER

@<TRIPOS>ATOM
      1 C         138.6578  139.6705  164.5634 C.ar    1  UNL1        0.1534
      2 C         138.1441  139.2843  165.9187 C.ar    1  UNL1        0.0591
      3 C         138.8900  139.7031  167.1508 C.ar    1  UNL1        0.1072
      4 N         138.3763  139.3168  168.5062 N.ar    1  UNL1       -0.1477
      5 N         139.1222  139.7356  169.7383 N.ar    1  UNL1       -0.1421
      6 C         140.3819  140.5407  169.6151 C.ar    1  UNL1        0.1690
      7 C         140.8955  140.9270  168.2598 C.ar    1  UNL1        0.0740
      8 C         140.1496  140.5081  167.0277 C.ar    1  UNL1        0.0359
      9 C         140.6633  140.8944  165.6724 C.ar    1  UNL1        0.0204
     10 C         139.9174  140.4756  164.4402 C.ar    1  UNL1        0.0825
     11 N         140.4311  140.8619  163.0849 N.pl3   1  UNL1       -0.3024
     12 C         141.6016  140.1354  162.4914 C.3     1  UNL1        0.1065
     13 C         142.1154  140.5216  161.1362 C.3     1  UNL1        0.0741
     14 C         143.2858  139.7951  160.5427 C.3     1  UNL1        0.0189
     15 N         141.4586  141.6344  160.3743 N.3     1  UNL1       -0.2969
     16 C         140.2882  142.3610  160.9677 C.3     1  UNL1        0.0741
     17 C         139.6315  143.4737  160.2059 C.3     1  UNL1        0.0189
     18 C         139.7744  141.9747  162.3231 C.3     1  UNL1        0.1065
     19 H         141.1415  141.2384  159.4894 H       1  UNL1        0.1233
     20 C         141.1278  140.9595  170.8473 C.2     1  UNL1        0.2635
     21 N         142.4172  140.2839  171.2094 N.am    1  UNL1       -0.3240
     22 O         140.5844  142.0539  171.7173 O.2     1  UNL1       -0.2686
     23 H         142.7739  139.5656  170.6384 H       1  UNL1        0.1453
     24 H         142.9068  140.5588  172.0181 H       1  UNL1        0.1453
     25 C         138.3732  138.0615  162.5435 C.3     1  UNL1        0.2525
     26 O         137.9119  139.2517  163.3312 O.3     1  UNL1       -0.4701
     27 N         142.1551  141.7320  168.1367 N.pl3   1  UNL1       -0.3094
     28 H         142.4379  142.3196  168.8743 H       1  UNL1        0.1523
     29 C         142.9840  141.6420  166.8897 C.ar    1  UNL1        0.0761
     30 C         143.3377  142.8877  166.1326 C.ar    1  UNL1        0.0166
     31 C         144.1664  142.7976  164.8857 C.ar    1  UNL1       -0.0028
     32 C         144.6416  141.4619  164.3957 C.ar    1  UNL1       -0.0195
     33 C         145.4703  141.3718  163.1487 C.3     1  UNL1        0.0311
     34 C         144.2878  140.2161  165.1527 C.ar    1  UNL1        0.0267
     35 C         143.4590  140.3062  166.3997 C.ar    1  UNL1        0.1531
     36 F         143.1053  139.0605  167.1568 F       1  UNL1       -0.2029
@<TRIPOS>BOND
     1    25    26    1
     2    26     1    1
     3     1     2   ar
     4     2     3   ar
     5     3     4   ar
     6     4     5   ar
     7     5     6   ar
     8     6    20    1
     9    20    21   am
    10    20    22    2
    11     6     7   ar
    12     7    27    1
    13    27    29    1
    14    29    30   ar
    15    30    31   ar
    16    31    32   ar
    17    32    33    1
    18    32    34   ar
    19    34    35   ar
    20    35    36    1
    21     7     8   ar
    22     8     9   ar
    23     9    10   ar
    24    10    11    1
    25    11    12    1
    26    12    13    1
    27    13    14    1
    28    13    15    1
    29    15    16    1
    30    16    17    1
    31    16    18    1
    32    10     1   ar
    33    18    11    1
    34     8     3   ar
    35    35    29   ar
    36    21    23    1
    37    21    24    1
    38    27    28    1
    39    15    19    1
@<TRIPOS>MOLECULE
*****
 36 39 0 0 0
SMALL
GASTEIGER

@<TRIPOS>ATOM
      1 C         143.0673  138.9729  164.4726 C.ar    1  UNL1        0.1534
      2 C         143.5109  138.6854  163.0689 C.ar    1  UNL1        0.0591
      3 C         143.5107  139.7799  162.0432 C.ar    1  UNL1        0.1072
      4 N         143.9543  139.4923  160.6394 N.ar    1  UNL1       -0.1477
      5 N         143.9541  140.5867  159.6137 N.ar    1  UNL1       -0.1421
      6 C         143.5103  141.9689  159.9918 C.ar    1  UNL1        0.1690
      7 C         143.0667  142.2564  161.3955 C.ar    1  UNL1        0.0740
      8 C         143.0669  141.1619  162.4212 C.ar    1  UNL1        0.0359
      9 C         142.6233  141.4495  163.8249 C.ar    1  UNL1        0.0204
     10 C         142.6235  140.3550  164.8507 C.ar    1  UNL1        0.0825
     11 N         142.1799  140.6426  166.2544 N.pl3   1  UNL1       -0.3024
     12 C         143.0763  141.4076  167.1824 C.3     1  UNL1        0.1065
     13 C         142.6328  141.6952  168.5861 C.3     1  UNL1        0.0741
     14 C         143.5293  142.4601  169.5141 C.3     1  UNL1        0.0189
     15 N         141.2927  141.2178  169.0620 N.3     1  UNL1       -0.2969
     16 C         140.3962  140.4529  168.1340 C.3     1  UNL1        0.0741
     17 C         139.0562  139.9755  168.6097 C.3     1  UNL1        0.0189
     18 C         140.8398  140.1652  166.7302 C.3     1  UNL1        0.1065
     19 H         140.7737  142.0446  169.3578 H       1  UNL1        0.1233
     20 C         143.5101  143.0634  158.9661 C.2     1  UNL1        0.2635
     21 N         144.5371  143.0668  157.8727 N.am    1  UNL1       -0.3240
     22 O         142.4830  144.1544  159.0337 O.2     1  UNL1       -0.2686
     23 H         145.2112  142.3507  157.8284 H       1  UNL1        0.1453
     24 H         144.5370  143.7851  157.1995 H       1  UNL1        0.1453
     25 C         144.1102  137.8611  166.5765 C.3     1  UNL1        0.2525
     26 O         143.0675  137.8784  165.4984 O.3     1  UNL1       -0.4701
     27 N         142.6229  143.6385  161.7735 N.pl3   1  UNL1       -0.3094
     28 H         143.1817  144.4154  161.5423 H       1  UNL1        0.1523
     29 C         141.3277  143.8368  162.5038 C.ar    1  UNL1        0.0761
     30 C         140.0720  143.1961  161.9914 C.ar    1  UNL1        0.0166
     31 C         138.7769  143.3944  162.7217 C.ar    1  UNL1       -0.0028
     32 C         138.7375  144.2336  163.9644 C.ar    1  UNL1       -0.0195
     33 C         137.4424  144.4319  164.6946 C.3     1  UNL1        0.0311
     34 C         139.9932  144.8744  164.4768 C.ar    1  UNL1        0.0267
     35 C         141.2884  144.6760  163.7465 C.ar    1  UNL1        0.1531
     36 F         142.5441  145.3168  164.2589 F       1  UNL1       -0.2029
@<TRIPOS>BOND
     1    25    26    1
     2    26     1    1
     3     1     2   ar
     4     2     3   ar
     5     3     4   ar
     6     4     5   ar
     7     5     6   ar
     8     6    20    1
     9    20    21   am
    10    20    22    2
    11     6     7   ar
    12     7    27    1
    13    27    29    1
    14    29    30   ar
    15    30    31   ar
    16    31    32   ar
    17    32    33    1
    18    32    34   ar
    19    34    35   ar
    20    35    36    1
    21     7     8   ar
    22     8     9   ar
    23     9    10   ar
    24    10    11    1
    25    11    12    1
    26    12    13    1
    27    13    14    1
    28    13    15    1
    29    15    16    1
    30    16    17    1
    31    16    18    1
    32    10     1   ar
    33    18    11    1
    34     8     3   ar
    35    35    29   ar
    36    21    23    1
    37    21    24    1
    38    27    28    1
    39    15    19    1
@<TRIPOS>MOLECULE
*****
 36 39 0 0 0
SMALL
GASTEIGER

@<TRIPOS>ATOM
      1 C         141.6787  143.5140  158.0497 C.ar    1  UNL1        0.1534
      2 C         140.4033  143.8850  158.7466 C.ar    1  UNL1        0.0591
      3 C         139.7878  142.9412  159.7368 C.ar    1  UNL1        0.1072
      4 N         138.5123  143.3122  160.4337 N.ar    1  UNL1       -0.1477
      5 N         137.8969  142.3684  161.4239 N.ar    1  UNL1       -0.1421
      6 C         138.5569  141.0537  161.7172 C.ar    1  UNL1        0.1690
      7 C         139.8323  140.6828  161.0203 C.ar    1  UNL1        0.0740
      8 C         140.4477  141.6265  160.0301 C.ar    1  UNL1        0.0359
      9 C         141.7232  141.2556  159.3332 C.ar    1  UNL1        0.0204
     10 C         142.3386  142.1994  158.3430 C.ar    1  UNL1        0.0825
     11 N         143.6141  141.8284  157.6461 N.pl3   1  UNL1       -0.3024
     12 C         144.8603  142.6276  157.8873 C.3     1  UNL1        0.1065
     13 C         146.1358  142.2567  157.1904 C.3     1  UNL1        0.0741
     14 C         147.3820  143.0559  157.4316 C.3     1  UNL1        0.0189
     15 N         146.1650  141.0865  156.2523 N.3     1  UNL1       -0.2969
     16 C         144.9188  140.2873  156.0112 C.3     1  UNL1        0.0741
     17 C         144.9480  139.1172  155.0732 C.3     1  UNL1        0.0189
     18 C         143.6433  140.6583  156.7081 C.3     1  UNL1        0.1065
     19 H         146.8656  140.4383  156.6120 H       1  UNL1        0.1233
     20 C         137.9414  140.1099  162.7074 C.2     1  UNL1        0.2635
     21 N         137.6429  140.5755  164.1018 N.am    1  UNL1       -0.3240
     22 O         137.6244  138.7006  162.3033 O.2     1  UNL1       -0.2686
     23 H         137.8510  141.5005  164.3670 H       1  UNL1        0.1453
     24 H         137.2390  139.9561  164.7517 H       1  UNL1        0.1453
     25 C         142.2180  145.9384  157.2872 C.3     1  UNL1        0.2525
     26 O         142.2942  144.4578  157.0595 O.3     1  UNL1       -0.4701
     27 N         140.4922  139.3681  161.3136 N.pl3   1  UNL1       -0.3094
     28 H         140.4361  138.6328  160.6614 H       1  UNL1        0.1523
     29 C         141.2377  139.1737  162.6008 C.ar    1  UNL1        0.0761
     30 C         142.2465  140.1914  163.0443 C.ar    1  UNL1        0.0166
     31 C         142.9919  139.9970  164.3313 C.ar    1  UNL1       -0.0028
     32 C         142.7285  138.7850  165.1749 C.ar    1  UNL1       -0.0195
     33 C         143.4739  138.5906  166.4620 C.3     1  UNL1        0.0311
     34 C         141.7197  137.7673  164.7314 C.ar    1  UNL1        0.0267
     35 C         140.9743  137.9617  163.4443 C.ar    1  UNL1        0.1531
     36 F         139.9655  136.9440  163.0008 F       1  UNL1       -0.2029
@<TRIPOS>BOND
     1    25    26    1
     2    26     1    1
     3     1     2   ar
     4     2     3   ar
     5     3     4   ar
     6     4     5   ar
     7     5     6   ar
     8     6    20    1
     9    20    21   am
    10    20    22    2
    11     6     7   ar
    12     7    27    1
    13    27    29    1
    14    29    30   ar
    15    30    31   ar
    16    31    32   ar
    17    32    33    1
    18    32    34   ar
    19    34    35   ar
    20    35    36    1
    21     7     8   ar
    22     8     9   ar
    23     9    10   ar
    24    10    11    1
    25    11    12    1
    26    12    13    1
    27    13    14    1
    28    13    15    1
    29    15    16    1
    30    16    17    1
    31    16    18    1
    32    10     1   ar
    33    18    11    1
    34     8     3   ar
    35    35    29   ar
    36    21    23    1
    37    21    24    1
    38    27    28    1
    39    15    19    1
