@<TRIPOS>MOLECULE
*****
 43 46 0 0 0
SMALL
GASTEIGER

@<TRIPOS>ATOM
      1 C         142.3806  141.0761  163.3565 C.3     1  UNL1        0.0799
      2 C         142.5608  141.4113  164.8075 C.ar    1  UNL1        0.0374
      3 C         141.7040  140.7454  165.8431 C.ar    1  UNL1        0.0023
      4 C         141.8841  141.0805  167.2940 C.ar    1  UNL1        0.0181
      5 C         141.0273  140.4146  168.3295 C.ar    1  UNL1        0.0082
      6 C         141.2075  140.7497  169.7805 C.ar    1  UNL1        0.0347
      7 BR        140.3507  140.0838  170.8161 Br      1  UNL1       -0.0490
      8 C         142.2445  141.7508  170.1959 C.ar    1  UNL1        0.0082
      9 C         143.1013  142.4167  169.1603 C.ar    1  UNL1        0.0197
     10 C         142.9212  142.0816  167.7094 C.ar    1  UNL1        0.0844
     11 N         143.7780  142.7475  166.6738 N.ar    1  UNL1       -0.2119
     12 C         143.5978  142.4123  165.2228 C.ar    1  UNL1        0.2211
     13 O         144.4546  143.0782  164.1873 O.3     1  UNL1       -0.4563
     14 C         143.9353  144.4797  164.0600 C.3     1  UNL1        0.2542
     15 C         141.6895  142.0448  162.4432 C.ar    1  UNL1        0.0148
     16 C         142.4433  142.6759  161.3104 C.ar    1  UNL1       -0.0014
     17 C         141.7523  143.6446  160.3971 C.ar    1  UNL1        0.0029
     18 C         140.3073  143.9821  160.6167 C.ar    1  UNL1        0.0392
     19 C         139.5534  143.3509  161.7495 C.ar    1  UNL1        0.1657
     20 C         140.2446  142.3822  162.6628 C.ar    1  UNL1        0.1702
     21 F         139.4907  141.7510  163.7957 F       1  UNL1       -0.2013
     22 O         138.1085  143.6883  161.9691 O.3     1  UNL1       -0.4692
     23 C         137.6751  144.3304  163.2536 C.3     1  UNL1        0.2526
     24 C         142.8915  139.7723  162.8189 C.3     1  UNL1        0.1162
     25 O         144.2954  140.2969  162.8809 O.3     1  UNL1       -0.3820
     26 H         144.9095  139.6150  162.5665 H       1  UNL1        0.2107
     27 C         139.2882  138.8571  161.4302 C.ar    1  UNL1        0.2272
     28 C         140.6921  139.3817  161.4923 C.ar    1  UNL1        0.0559
     29 C         141.4876  139.2478  162.7569 C.ar    1  UNL1        0.0117
     30 C         140.8792  138.5892  163.9594 C.ar    1  UNL1        0.0559
     31 C         139.4752  138.0647  163.8974 C.ar    1  UNL1        0.2270
     32 N         138.6797  138.1986  162.6328 N.ar    1  UNL1       -0.1767
     33 C         137.3170  139.9212  160.1141 C.3     1  UNL1        0.2542
     34 O         138.4926  138.9911  160.1656 O.3     1  UNL1       -0.4561
     35 O         138.8668  137.4061  165.1000 O.3     1  UNL1       -0.4640
     36 C         138.1106  138.2268  166.1023 C.3     1  UNL1        0.1678
     37 C         137.3066  137.5499  167.1724 C.3     1  UNL1        0.0473
     38 C         138.1585  139.7246  166.0344 C.3     1  UNL1        0.0473
     39 C         143.4024  138.4685  162.2813 C.3     1  UNL1        0.0491
     40 C         144.2401  138.4469  161.0371 C.3     1  UNL1        0.0750
     41 N         143.6200  138.7695  159.7098 N.3     1  UNL1       -0.2702
     42 C         142.7846  137.7436  159.0032 C.3     1  UNL1        0.0897
     43 C         143.8355  140.1181  159.0893 C.3     1  UNL1        0.0897
@<TRIPOS>BOND
     1    33    34    1
     2    34    27    1
     3    27    28   ar
     4    28    29   ar
     5    29    24    1
     6    24    25    1
     7    24    39    1
     8    39    40    1
     9    40    41    1
    10    41    42    1
    11    41    43    1
    12    24     1    1
    13     1     2    1
    14     2     3   ar
    15     3     4   ar
    16     4     5   ar
    17     5     6   ar
    18     6     7    1
    19     6     8   ar
    20     8     9   ar
    21     9    10   ar
    22    10    11   ar
    23    11    12   ar
    24    12    13    1
    25    13    14    1
    26     1    15    1
    27    15    16   ar
    28    16    17   ar
    29    17    18   ar
    30    18    19   ar
    31    19    22    1
    32    22    23    1
    33    19    20   ar
    34    20    21    1
    35    29    30   ar
    36    30    31   ar
    37    31    35    1
    38    35    36    1
    39    36    37    1
    40    36    38    1
    41    31    32   ar
    42    32    27   ar
    43    12     2   ar
    44    20    15   ar
    45    10     4   ar
    46    25    26    1
@<TRIPOS>MOLECULE
*****
 43 46 0 0 0
SMALL
GASTEIGER

@<TRIPOS>ATOM
      1 C         141.8522  140.9476  162.4567 C.3     1  UNL1        0.0799
      2 C         141.7109  140.6757  163.9251 C.ar    1  UNL1        0.0374
      3 C         141.3587  141.7912  164.8640 C.ar    1  UNL1        0.0023
      4 C         141.2175  141.5193  166.3323 C.ar    1  UNL1        0.0181
      5 C         140.8653  142.6349  167.2712 C.ar    1  UNL1        0.0082
      6 C         140.7240  142.3629  168.7396 C.ar    1  UNL1        0.0347
      7 BR        140.3718  143.4785  169.6784 Br      1  UNL1       -0.0490
      8 C         140.9351  140.9755  169.2691 C.ar    1  UNL1        0.0082
      9 C         141.2873  139.8599  168.3302 C.ar    1  UNL1        0.0197
     10 C         141.4285  140.1318  166.8619 C.ar    1  UNL1        0.0844
     11 N         141.7807  139.0163  165.9230 N.ar    1  UNL1       -0.2119
     12 C         141.9220  139.2882  164.4546 C.ar    1  UNL1        0.2211
     13 O         142.2742  138.1727  163.5157 O.3     1  UNL1       -0.4563
     14 C         141.1511  137.1828  163.6100 C.3     1  UNL1        0.2542
     15 C         141.0625  140.1448  161.4659 C.ar    1  UNL1        0.0148
     16 C         139.5729  140.0366  161.6053 C.ar    1  UNL1       -0.0014
     17 C         138.7832  139.2338  160.6145 C.ar    1  UNL1        0.0029
     18 C         139.4830  138.5390  159.4842 C.ar    1  UNL1        0.0392
     19 C         140.9726  138.6471  159.3448 C.ar    1  UNL1        0.1657
     20 C         141.7623  139.4500  160.3357 C.ar    1  UNL1        0.1702
     21 F         143.2519  139.5582  160.1962 F       1  UNL1       -0.2013
     22 O         141.6725  137.9524  158.2146 O.3     1  UNL1       -0.4692
     23 C         140.9087  137.5691  156.9819 C.3     1  UNL1        0.2526
     24 C         142.7831  142.0225  161.9791 C.3     1  UNL1        0.1162
     25 O         143.9480  141.2639  162.5427 O.3     1  UNL1       -0.3820
     26 H         144.7667  141.7557  162.3730 H       1  UNL1        0.2107
     27 C         140.3884  143.8311  159.3821 C.ar    1  UNL1        0.2272
     28 C         141.5533  143.0725  159.9457 C.ar    1  UNL1        0.0559
     29 C         141.6182  142.7811  161.4156 C.ar    1  UNL1        0.0117
     30 C         140.5182  143.2482  162.3220 C.ar    1  UNL1        0.0559
     31 C         139.3532  144.0068  161.7585 C.ar    1  UNL1        0.2270
     32 N         139.2884  144.2982  160.2886 N.ar    1  UNL1       -0.1767
     33 C         140.4157  145.5377  157.4233 C.3     1  UNL1        0.2542
     34 O         140.3236  144.1225  157.9121 O.3     1  UNL1       -0.4561
     35 O         138.2532  144.4739  162.6650 O.3     1  UNL1       -0.4640
     36 C         138.1992  143.9971  164.0862 C.3     1  UNL1        0.1678
     37 C         138.6810  144.8859  165.1943 C.3     1  UNL1        0.0473
     38 C         137.6633  142.6314  164.3993 C.3     1  UNL1        0.0473
     39 C         143.7140  143.0973  161.5016 C.3     1  UNL1        0.0491
     40 C         144.5446  143.8631  162.4885 C.3     1  UNL1        0.0750
     41 N         143.9716  144.2313  163.8249 N.3     1  UNL1       -0.2702
     42 C         144.4852  143.5697  165.0692 C.3     1  UNL1        0.0897
     43 C         142.8849  145.2613  163.9170 C.3     1  UNL1        0.0897
@<TRIPOS>BOND
     1    33    34    1
     2    34    27    1
     3    27    28   ar
     4    28    29   ar
     5    29    24    1
     6    24    25    1
     7    24    39    1
     8    39    40    1
     9    40    41    1
    10    41    42    1
    11    41    43    1
    12    24     1    1
    13     1     2    1
    14     2     3   ar
    15     3     4   ar
    16     4     5   ar
    17     5     6   ar
    18     6     7    1
    19     6     8   ar
    20     8     9   ar
    21     9    10   ar
    22    10    11   ar
    23    11    12   ar
    24    12    13    1
    25    13    14    1
    26     1    15    1
    27    15    16   ar
    28    16    17   ar
    29    17    18   ar
    30    18    19   ar
    31    19    22    1
    32    22    23    1
    33    19    20   ar
    34    20    21    1
    35    29    30   ar
    36    30    31   ar
    37    31    35    1
    38    35    36    1
    39    36    37    1
    40    36    38    1
    41    31    32   ar
    42    32    27   ar
    43    12     2   ar
    44    20    15   ar
    45    10     4   ar
    46    25    26    1
@<TRIPOS>MOLECULE
*****
 43 46 0 0 0
SMALL
GASTEIGER

@<TRIPOS>ATOM
      1 C         140.6120  140.4894  162.9156 C.3     1  UNL1        0.0799
      2 C         140.3354  140.4084  164.3877 C.ar    1  UNL1        0.0374
      3 C         140.5901  141.5979  165.2652 C.ar    1  UNL1        0.0023
      4 C         140.3136  141.5169  166.7373 C.ar    1  UNL1        0.0181
      5 C         140.5683  142.7065  167.6148 C.ar    1  UNL1        0.0082
      6 C         140.2918  142.6254  169.0869 C.ar    1  UNL1        0.0347
      7 BR        140.5465  143.8149  169.9645 Br      1  UNL1       -0.0490
      8 C         139.7605  141.3549  169.6814 C.ar    1  UNL1        0.0082
      9 C         139.5058  140.1653  168.8038 C.ar    1  UNL1        0.0197
     10 C         139.7823  140.2463  167.3318 C.ar    1  UNL1        0.0844
     11 N         139.5276  139.0568  166.4542 N.ar    1  UNL1       -0.2119
     12 C         139.8042  139.1378  164.9821 C.ar    1  UNL1        0.2211
     13 O         139.5494  137.9483  164.1046 O.3     1  UNL1       -0.4563
     14 C         140.6583  136.9792  164.3897 C.3     1  UNL1        0.2542
     15 C         141.7301  139.6884  162.3173 C.ar    1  UNL1        0.0148
     16 C         143.0356  139.5626  163.0452 C.ar    1  UNL1       -0.0014
     17 C         144.1538  138.7615  162.4470 C.ar    1  UNL1        0.0029
     18 C         143.9665  138.0861  161.1207 C.ar    1  UNL1        0.0392
     19 C         142.6610  138.2119  160.3928 C.ar    1  UNL1        0.1657
     20 C         141.5428  139.0131  160.9911 C.ar    1  UNL1        0.1702
     21 F         140.2373  139.1389  160.2632 F       1  UNL1       -0.2013
     22 O         142.4736  137.5367  159.0666 O.3     1  UNL1       -0.4692
     23 C         142.5893  138.3293  157.7984 C.3     1  UNL1        0.2526
     24 C         139.7704  141.3716  162.0418 C.3     1  UNL1        0.1162
     25 O         138.5488  140.5942  162.4335 O.3     1  UNL1       -0.3820
     26 H         137.7724  140.9645  161.9853 H       1  UNL1        0.2107
     27 C         142.4963  143.1998  159.8109 C.ar    1  UNL1        0.2272
     28 C         141.2747  142.4224  160.2026 C.ar    1  UNL1        0.0559
     29 C         140.9919  142.1490  161.6501 C.ar    1  UNL1        0.0117
     30 C         141.9307  142.6530  162.7058 C.ar    1  UNL1        0.0559
     31 C         143.1522  143.4305  162.3141 C.ar    1  UNL1        0.2270
     32 N         143.4350  143.7038  160.8666 N.ar    1  UNL1       -0.1767
     33 C         142.3010  144.7479  157.7335 C.3     1  UNL1        0.2542
     34 O         142.7790  143.4732  158.3633 O.3     1  UNL1       -0.4561
     35 O         144.0910  143.9345  163.3699 O.3     1  UNL1       -0.4640
     36 C         144.6166  142.9966  164.4159 C.3     1  UNL1        0.1678
     37 C         145.6216  141.9467  164.0450 C.3     1  UNL1        0.0473
     38 C         144.1370  143.1085  165.8328 C.3     1  UNL1        0.0473
     39 C         138.9287  142.2538  161.1680 C.3     1  UNL1        0.0491
     40 C         137.9201  143.1773  161.7844 C.3     1  UNL1        0.0750
     41 N         138.3460  144.1588  162.8357 N.3     1  UNL1       -0.2702
     42 C         137.9008  143.9764  164.2565 C.3     1  UNL1        0.0897
     43 C         139.2171  145.3228  162.4663 C.3     1  UNL1        0.0897
@<TRIPOS>BOND
     1    33    34    1
     2    34    27    1
     3    27    28   ar
     4    28    29   ar
     5    29    24    1
     6    24    25    1
     7    24    39    1
     8    39    40    1
     9    40    41    1
    10    41    42    1
    11    41    43    1
    12    24     1    1
    13     1     2    1
    14     2     3   ar
    15     3     4   ar
    16     4     5   ar
    17     5     6   ar
    18     6     7    1
    19     6     8   ar
    20     8     9   ar
    21     9    10   ar
    22    10    11   ar
    23    11    12   ar
    24    12    13    1
    25    13    14    1
    26     1    15    1
    27    15    16   ar
    28    16    17   ar
    29    17    18   ar
    30    18    19   ar
    31    19    22    1
    32    22    23    1
    33    19    20   ar
    34    20    21    1
    35    29    30   ar
    36    30    31   ar
    37    31    35    1
    38    35    36    1
    39    36    37    1
    40    36    38    1
    41    31    32   ar
    42    32    27   ar
    43    12     2   ar
    44    20    15   ar
    45    10     4   ar
    46    25    26    1
@<TRIPOS>MOLECULE
*****
 43 46 0 0 0
SMALL
GASTEIGER

@<TRIPOS>ATOM
      1 C         141.5880  142.0588  162.6360 C.3     1  UNL1        0.0799
      2 C         141.9913  142.1062  164.0800 C.ar    1  UNL1        0.0374
      3 C         141.0023  141.7416  165.1473 C.ar    1  UNL1        0.0023
      4 C         141.4055  141.7889  166.5912 C.ar    1  UNL1        0.0181
      5 C         140.4165  141.4243  167.6584 C.ar    1  UNL1        0.0082
      6 C         140.8197  141.4717  169.1025 C.ar    1  UNL1        0.0347
      7 BR        139.8307  141.1072  170.1697 Br      1  UNL1       -0.0490
      8 C         142.2119  141.8837  169.4793 C.ar    1  UNL1        0.0082
      9 C         143.2009  142.2483  168.4121 C.ar    1  UNL1        0.0197
     10 C         142.7977  142.2009  166.9681 C.ar    1  UNL1        0.0844
     11 N         143.7867  142.5655  165.9009 N.ar    1  UNL1       -0.2119
     12 C         143.3835  142.5181  164.4568 C.ar    1  UNL1        0.2211
     13 O         144.3725  142.8827  163.3896 O.3     1  UNL1       -0.4563
     14 C         145.4976  141.8987  163.5151 C.3     1  UNL1        0.2542
     15 C         142.3781  141.2344  161.6633 C.ar    1  UNL1        0.0148
     16 C         142.5836  139.7700  161.9147 C.ar    1  UNL1       -0.0014
     17 C         143.3737  138.9456  160.9421 C.ar    1  UNL1        0.0029
     18 C         143.9584  139.5857  159.7179 C.ar    1  UNL1        0.0392
     19 C         143.7530  141.0501  159.4665 C.ar    1  UNL1        0.1657
     20 C         142.9628  141.8745  160.4393 C.ar    1  UNL1        0.1702
     21 F         142.7573  143.3389  160.1878 F       1  UNL1       -0.2013
     22 O         144.3376  141.6902  158.2424 O.3     1  UNL1       -0.4692
     23 C         144.8733  140.8355  157.1323 C.3     1  UNL1        0.2526
     24 C         140.3946  142.8357  162.1647 C.3     1  UNL1        0.1162
     25 O         141.0567  144.1120  162.5923 O.3     1  UNL1       -0.3820
     26 H         140.4718  144.8608  162.3971 H       1  UNL1        0.2107
     27 C         138.7346  140.0600  159.8648 C.ar    1  UNL1        0.2272
     28 C         139.3967  141.3363  160.2924 C.ar    1  UNL1        0.0559
     29 C         139.7326  141.5595  161.7371 C.ar    1  UNL1        0.0117
     30 C         139.4064  140.5064  162.7542 C.ar    1  UNL1        0.0559
     31 C         138.7443  139.2302  162.3267 C.ar    1  UNL1        0.2270
     32 N         138.4084  139.0070  160.8819 N.ar    1  UNL1       -0.1767
     33 C         137.6336  140.8782  157.6583 C.3     1  UNL1        0.2542
     34 O         138.3987  139.8368  158.4199 O.3     1  UNL1       -0.4561
     35 O         138.4181  138.1771  163.3439 O.3     1  UNL1       -0.4640
     36 C         139.1123  138.1782  164.6736 C.3     1  UNL1        0.1678
     37 C         140.5179  137.6666  164.7862 C.3     1  UNL1        0.0473
     38 C         138.4010  138.6908  165.8906 C.3     1  UNL1        0.0473
     39 C         139.2012  143.6127  161.6934 C.3     1  UNL1        0.0491
     40 C         138.4569  144.4972  162.6493 C.3     1  UNL1        0.0750
     41 N         138.2792  144.0756  164.0779 N.3     1  UNL1       -0.2702
     42 C         138.8890  144.8885  165.1811 C.3     1  UNL1        0.0897
     43 C         137.4916  142.8410  164.4031 C.3     1  UNL1        0.0897
@<TRIPOS>BOND
     1    33    34    1
     2    34    27    1
     3    27    28   ar
     4    28    29   ar
     5    29    24    1
     6    24    25    1
     7    24    39    1
     8    39    40    1
     9    40    41    1
    10    41    42    1
    11    41    43    1
    12    24     1    1
    13     1     2    1
    14     2     3   ar
    15     3     4   ar
    16     4     5   ar
    17     5     6   ar
    18     6     7    1
    19     6     8   ar
    20     8     9   ar
    21     9    10   ar
    22    10    11   ar
    23    11    12   ar
    24    12    13    1
    25    13    14    1
    26     1    15    1
    27    15    16   ar
    28    16    17   ar
    29    17    18   ar
    30    18    19   ar
    31    19    22    1
    32    22    23    1
    33    19    20   ar
    34    20    21    1
    35    29    30   ar
    36    30    31   ar
    37    31    35    1
    38    35    36    1
    39    36    37    1
    40    36    38    1
    41    31    32   ar
    42    32    27   ar
    43    12     2   ar
    44    20    15   ar
    45    10     4   ar
    46    25    26    1
@<TRIPOS>MOLECULE
*****
 43 46 0 0 0
SMALL
GASTEIGER

@<TRIPOS>ATOM
      1 C         141.1955  142.0135  164.4716 C.3     1  UNL1        0.0799
      2 C         142.1397  142.2405  163.3283 C.ar    1  UNL1        0.0374
      3 C         141.9900  141.4482  162.0635 C.ar    1  UNL1        0.0023
      4 C         142.9342  141.6750  160.9202 C.ar    1  UNL1        0.0181
      5 C         142.7845  140.8827  159.6554 C.ar    1  UNL1        0.0082
      6 C         143.7287  141.1096  158.5121 C.ar    1  UNL1        0.0347
      7 BR        143.5791  140.3173  157.2472 Br      1  UNL1       -0.0490
      8 C         144.8225  142.1288  158.6337 C.ar    1  UNL1        0.0082
      9 C         144.9722  142.9211  159.8985 C.ar    1  UNL1        0.0197
     10 C         144.0281  142.6942  161.0418 C.ar    1  UNL1        0.0844
     11 N         144.1777  143.4865  162.3066 N.ar    1  UNL1       -0.2119
     12 C         143.2335  143.2596  163.4499 C.ar    1  UNL1        0.2211
     13 O         143.3832  144.0519  164.7148 O.3     1  UNL1       -0.4563
     14 C         144.6295  143.5430  165.3763 C.3     1  UNL1        0.2542
     15 C         141.6806  141.3448  165.7235 C.ar    1  UNL1        0.0148
     16 C         142.4328  140.0497  165.6389 C.ar    1  UNL1       -0.0014
     17 C         142.9179  139.3809  166.8908 C.ar    1  UNL1        0.0029
     18 C         142.6508  140.0072  168.2275 C.ar    1  UNL1        0.0392
     19 C         141.8986  141.3022  168.3121 C.ar    1  UNL1        0.1657
     20 C         141.4135  141.9710  167.0601 C.ar    1  UNL1        0.1702
     21 F         140.6613  143.2660  167.1448 F       1  UNL1       -0.2013
     22 O         141.6315  141.9284  169.6487 O.3     1  UNL1       -0.4692
     23 C         140.2490  141.8952  170.2296 C.3     1  UNL1        0.2526
     24 C         139.7662  142.4555  164.3629 C.3     1  UNL1        0.1162
     25 O         140.2161  143.8815  164.2448 O.3     1  UNL1       -0.3820
     26 H         139.4416  144.4583  164.1531 H       1  UNL1        0.2107
     27 C         138.1127  139.1529  165.8153 C.ar    1  UNL1        0.2272
     28 C         138.5626  140.5790  165.6972 C.ar    1  UNL1        0.0559
     29 C         139.3163  141.0294  164.4810 C.ar    1  UNL1        0.0117
     30 C         139.6200  140.0538  163.3829 C.ar    1  UNL1        0.0559
     31 C         139.1701  138.6277  163.5010 C.ar    1  UNL1        0.2270
     32 N         138.4165  138.1773  164.7172 N.ar    1  UNL1       -0.1767
     33 C         137.1401  137.2394  167.2790 C.3     1  UNL1        0.2542
     34 O         137.3591  138.7025  167.0315 O.3     1  UNL1       -0.4561
     35 O         139.4739  137.6520  162.4029 O.3     1  UNL1       -0.4640
     36 C         140.4257  138.0293  161.3066 C.3     1  UNL1        0.1678
     37 C         141.8992  137.8132  161.4853 C.3     1  UNL1        0.0473
     38 C         139.9038  138.6226  160.0315 C.3     1  UNL1        0.0473
     39 C         138.3369  142.8974  164.2542 C.3     1  UNL1        0.0491
     40 C         137.8924  143.7162  163.0786 C.3     1  UNL1        0.0750
     41 N         138.5579  143.5383  161.7461 N.3     1  UNL1       -0.2702
     42 C         138.2352  142.3424  160.9003 C.3     1  UNL1        0.0897
     43 C         139.5462  144.5565  161.2595 C.3     1  UNL1        0.0897
@<TRIPOS>BOND
     1    33    34    1
     2    34    27    1
     3    27    28   ar
     4    28    29   ar
     5    29    24    1
     6    24    25    1
     7    24    39    1
     8    39    40    1
     9    40    41    1
    10    41    42    1
    11    41    43    1
    12    24     1    1
    13     1     2    1
    14     2     3   ar
    15     3     4   ar
    16     4     5   ar
    17     5     6   ar
    18     6     7    1
    19     6     8   ar
    20     8     9   ar
    21     9    10   ar
    22    10    11   ar
    23    11    12   ar
    24    12    13    1
    25    13    14    1
    26     1    15    1
    27    15    16   ar
    28    16    17   ar
    29    17    18   ar
    30    18    19   ar
    31    19    22    1
    32    22    23    1
    33    19    20   ar
    34    20    21    1
    35    29    30   ar
    36    30    31   ar
    37    31    35    1
    38    35    36    1
    39    36    37    1
    40    36    38    1
    41    31    32   ar
    42    32    27   ar
    43    12     2   ar
    44    20    15   ar
    45    10     4   ar
    46    25    26    1
@<TRIPOS>MOLECULE
*****
 43 46 0 0 0
SMALL
GASTEIGER

@<TRIPOS>ATOM
      1 C         142.2857  141.5206  162.8164 C.3     1  UNL1        0.0799
      2 C         142.5606  141.7329  164.2757 C.ar    1  UNL1        0.0374
      3 C         141.7806  140.9693  165.3046 C.ar    1  UNL1        0.0023
      4 C         142.0554  141.1815  166.7638 C.ar    1  UNL1        0.0181
      5 C         141.2754  140.4180  167.7927 C.ar    1  UNL1        0.0082
      6 C         141.5503  140.6302  169.2520 C.ar    1  UNL1        0.0347
      7 BR        140.7703  139.8666  170.2809 Br      1  UNL1       -0.0490
      8 C         142.6050  141.6060  169.6823 C.ar    1  UNL1        0.0082
      9 C         143.3850  142.3696  168.6535 C.ar    1  UNL1        0.0197
     10 C         143.1102  142.1574  167.1942 C.ar    1  UNL1        0.0844
     11 N         143.8902  142.9210  166.1654 N.ar    1  UNL1       -0.2119
     12 C         143.6153  142.7087  164.7061 C.ar    1  UNL1        0.2211
     13 O         144.3953  143.4723  163.6772 O.3     1  UNL1       -0.4563
     14 C         143.8703  144.8768  163.7188 C.3     1  UNL1        0.2542
     15 C         141.5551  142.5688  162.0306 C.ar    1  UNL1        0.0148
     16 C         140.1372  142.9139  162.3777 C.ar    1  UNL1       -0.0014
     17 C         139.4065  143.9620  161.5919 C.ar    1  UNL1        0.0029
     18 C         140.0938  144.6651  160.4590 C.ar    1  UNL1        0.0392
     19 C         141.5117  144.3200  160.1119 C.ar    1  UNL1        0.1657
     20 C         142.2423  143.2718  160.8978 C.ar    1  UNL1        0.1702
     21 F         143.6602  142.9267  160.5507 F       1  UNL1       -0.2013
     22 O         142.1989  145.0231  158.9791 O.3     1  UNL1       -0.4692
     23 C         141.3890  145.6391  157.8770 C.3     1  UNL1        0.2526
     24 C         142.7416  140.2602  162.1430 C.3     1  UNL1        0.1162
     25 O         144.1667  140.7138  162.2586 O.3     1  UNL1       -0.3820
     26 H         144.7518  140.0431  161.8730 H       1  UNL1        0.2107
     27 C         139.1960  139.3962  160.5834 C.ar    1  UNL1        0.2272
     28 C         140.6211  139.8499  160.6990 C.ar    1  UNL1        0.0559
     29 C         141.3165  139.8066  162.0273 C.ar    1  UNL1        0.0117
     30 C         140.5868  139.3097  163.2400 C.ar    1  UNL1        0.0559
     31 C         139.1617  138.8561  163.1243 C.ar    1  UNL1        0.2270
     32 N         138.4663  138.8994  161.7960 N.ar    1  UNL1       -0.1767
     33 C         139.2147  139.9806  158.0519 C.3     1  UNL1        0.2542
     34 O         138.5006  139.4395  159.2549 O.3     1  UNL1       -0.4561
     35 O         138.4321  138.3592  164.3371 O.3     1  UNL1       -0.4640
     36 C         138.2020  139.2759  165.5019 C.3     1  UNL1        0.1678
     37 C         138.2394  140.7624  165.3053 C.3     1  UNL1        0.0473
     38 C         137.9347  138.7059  166.8635 C.3     1  UNL1        0.0473
     39 C         143.1974  138.9998  161.4695 C.3     1  UNL1        0.0491
     40 C         144.1711  139.0679  160.3305 C.3     1  UNL1        0.0750
     41 N         143.6755  139.2915  158.9325 N.3     1  UNL1       -0.2702
     42 C         144.0303  140.5536  158.2038 C.3     1  UNL1        0.0897
     43 C         142.8250  138.2528  158.2632 C.3     1  UNL1        0.0897
@<TRIPOS>BOND
     1    33    34    1
     2    34    27    1
     3    27    28   ar
     4    28    29   ar
     5    29    24    1
     6    24    25    1
     7    24    39    1
     8    39    40    1
     9    40    41    1
    10    41    42    1
    11    41    43    1
    12    24     1    1
    13     1     2    1
    14     2     3   ar
    15     3     4   ar
    16     4     5   ar
    17     5     6   ar
    18     6     7    1
    19     6     8   ar
    20     8     9   ar
    21     9    10   ar
    22    10    11   ar
    23    11    12   ar
    24    12    13    1
    25    13    14    1
    26     1    15    1
    27    15    16   ar
    28    16    17   ar
    29    17    18   ar
    30    18    19   ar
    31    19    22    1
    32    22    23    1
    33    19    20   ar
    34    20    21    1
    35    29    30   ar
    36    30    31   ar
    37    31    35    1
    38    35    36    1
    39    36    37    1
    40    36    38    1
    41    31    32   ar
    42    32    27   ar
    43    12     2   ar
    44    20    15   ar
    45    10     4   ar
    46    25    26    1
@<TRIPOS>MOLECULE
*****
 43 46 0 0 0
SMALL
GASTEIGER

@<TRIPOS>ATOM
      1 C         140.3685  141.3585  161.4784 C.3     1  UNL1        0.0799
      2 C         140.0754  140.9555  162.8933 C.ar    1  UNL1        0.0374
      3 C         141.0993  141.1836  163.9655 C.ar    1  UNL1        0.0023
      4 C         140.8063  140.7807  165.3803 C.ar    1  UNL1        0.0181
      5 C         141.8302  141.0088  166.4524 C.ar    1  UNL1        0.0082
      6 C         141.5372  140.6058  167.8673 C.ar    1  UNL1        0.0347
      7 BR        142.5611  140.8340  168.9395 Br      1  UNL1       -0.0490
      8 C         140.2203  139.9748  168.2100 C.ar    1  UNL1        0.0082
      9 C         139.1964  139.7466  167.1378 C.ar    1  UNL1        0.0197
     10 C         139.4894  140.1496  165.7230 C.ar    1  UNL1        0.0844
     11 N         138.4655  139.9214  164.6508 N.ar    1  UNL1       -0.2119
     12 C         138.7585  140.3244  163.2359 C.ar    1  UNL1        0.2211
     13 O         137.7346  140.0963  162.1637 O.3     1  UNL1       -0.4563
     14 C         137.7490  138.6225  161.8852 C.3     1  UNL1        0.2542
     15 C         140.6665  140.3112  160.4467 C.ar    1  UNL1        0.0148
     16 C         141.8819  139.4437  160.5880 C.ar    1  UNL1       -0.0014
     17 C         142.1799  138.3964  159.5563 C.ar    1  UNL1        0.0029
     18 C         141.2624  138.2167  158.3832 C.ar    1  UNL1        0.0392
     19 C         140.0469  139.0843  158.2420 C.ar    1  UNL1        0.1657
     20 C         139.7490  140.1315  159.2737 C.ar    1  UNL1        0.1702
     21 F         138.5335  140.9991  159.1325 F       1  UNL1       -0.2013
     22 O         139.1294  138.9046  157.0690 O.3     1  UNL1       -0.4692
     23 C         139.4097  137.8360  156.0544 C.3     1  UNL1        0.2526
     24 C         140.3636  142.8087  161.0953 C.3     1  UNL1        0.1162
     25 O         138.9082  142.8968  161.4476 O.3     1  UNL1       -0.3820
     26 H         138.5915  143.8000  161.2899 H       1  UNL1        0.2107
     27 C         143.7014  142.6661  158.9533 C.ar    1  UNL1        0.2272
     28 C         142.2461  142.7542  159.3056 C.ar    1  UNL1        0.0559
     29 C         141.8190  142.7206  160.7431 C.ar    1  UNL1        0.0117
     30 C         142.8472  142.5990  161.8283 C.ar    1  UNL1        0.0559
     31 C         144.3026  142.5109  161.4760 C.ar    1  UNL1        0.2270
     32 N         144.7297  142.5444  160.0386 N.ar    1  UNL1       -0.1767
     33 C         145.4865  142.1964  157.1248 C.3     1  UNL1        0.2542
     34 O         144.1285  142.6996  157.5157 O.3     1  UNL1       -0.4561
     35 O         145.3309  142.3892  162.5614 O.3     1  UNL1       -0.4640
     36 C         144.9198  141.9640  163.9398 C.3     1  UNL1        0.1678
     37 C         144.6024  142.9971  164.9800 C.3     1  UNL1        0.0473
     38 C         144.8260  140.5056  164.2781 C.3     1  UNL1        0.0473
     39 C         140.3586  144.2590  160.7122 C.3     1  UNL1        0.0491
     40 C         139.9378  145.2969  161.7101 C.3     1  UNL1        0.0750
     41 N         140.3224  145.1499  163.1525 N.3     1  UNL1       -0.2702
     42 C         139.2853  144.7810  164.1714 C.3     1  UNL1        0.0897
     43 C         141.7442  145.3720  163.5759 C.3     1  UNL1        0.0897
@<TRIPOS>BOND
     1    33    34    1
     2    34    27    1
     3    27    28   ar
     4    28    29   ar
     5    29    24    1
     6    24    25    1
     7    24    39    1
     8    39    40    1
     9    40    41    1
    10    41    42    1
    11    41    43    1
    12    24     1    1
    13     1     2    1
    14     2     3   ar
    15     3     4   ar
    16     4     5   ar
    17     5     6   ar
    18     6     7    1
    19     6     8   ar
    20     8     9   ar
    21     9    10   ar
    22    10    11   ar
    23    11    12   ar
    24    12    13    1
    25    13    14    1
    26     1    15    1
    27    15    16   ar
    28    16    17   ar
    29    17    18   ar
    30    18    19   ar
    31    19    22    1
    32    22    23    1
    33    19    20   ar
    34    20    21    1
    35    29    30   ar
    36    30    31   ar
    37    31    35    1
    38    35    36    1
    39    36    37    1
    40    36    38    1
    41    31    32   ar
    42    32    27   ar
    43    12     2   ar
    44    20    15   ar
    45    10     4   ar
    46    25    26    1
@<TRIPOS>MOLECULE
*****
 43 46 0 0 0
SMALL
GASTEIGER

@<TRIPOS>ATOM
      1 C         141.6466  141.0481  161.8676 C.3     1  UNL1        0.0799
      2 C         141.1592  140.7315  163.2505 C.ar    1  UNL1        0.0374
      3 C         141.2675  141.7594  164.3375 C.ar    1  UNL1        0.0023
      4 C         140.7802  141.4428  165.7203 C.ar    1  UNL1        0.0181
      5 C         140.8884  142.4708  166.8073 C.ar    1  UNL1        0.0082
      6 C         140.4011  142.1542  168.1902 C.ar    1  UNL1        0.0347
      7 BR        140.5094  143.1821  169.2773 Br      1  UNL1       -0.0490
      8 C         139.8055  140.8097  168.4860 C.ar    1  UNL1        0.0082
      9 C         139.6972  139.7817  167.3990 C.ar    1  UNL1        0.0197
     10 C         140.1845  140.0983  166.0162 C.ar    1  UNL1        0.0844
     11 N         140.0762  139.0704  164.9291 N.ar    1  UNL1       -0.2119
     12 C         140.5636  139.3870  163.5463 C.ar    1  UNL1        0.2211
     13 O         140.4553  138.3591  162.4592 O.3     1  UNL1       -0.4563
     14 C         139.1110  137.7161  162.6307 C.3     1  UNL1        0.2542
     15 C         141.0463  140.3510  160.6829 C.ar    1  UNL1        0.0148
     16 C         141.8890  139.4358  159.8448 C.ar    1  UNL1       -0.0014
     17 C         141.2887  138.7387  158.6601 C.ar    1  UNL1        0.0029
     18 C         139.8456  138.9566  158.3134 C.ar    1  UNL1        0.0392
     19 C         139.0029  139.8718  159.1515 C.ar    1  UNL1        0.1657
     20 C         139.6033  140.5689  160.3362 C.ar    1  UNL1        0.1702
     21 F         138.7606  141.4841  161.1743 F       1  UNL1       -0.2013
     22 O         137.5599  140.0897  158.8048 O.3     1  UNL1       -0.4692
     23 C         137.1931  140.8773  157.5821 C.3     1  UNL1        0.2526
     24 C         142.7342  142.0619  161.6695 C.3     1  UNL1        0.1162
     25 O         143.7457  141.0749  162.1723 O.3     1  UNL1       -0.3820
     26 H         144.6269  141.4803  162.1599 H       1  UNL1        0.2107
     27 C         140.7583  144.4973  159.2375 C.ar    1  UNL1        0.2272
     28 C         141.7698  143.5103  159.7403 C.ar    1  UNL1        0.0559
     29 C         141.7227  143.0489  161.1667 C.ar    1  UNL1        0.0117
     30 C         140.6641  143.5743  162.0904 C.ar    1  UNL1        0.0559
     31 C         139.6526  144.5613  161.5876 C.ar    1  UNL1        0.2270
     32 N         139.6997  145.0228  160.1612 N.ar    1  UNL1       -0.1767
     33 C         142.1258  145.1153  157.1166 C.3     1  UNL1        0.2542
     34 O         140.8054  144.9587  157.8110 O.3     1  UNL1       -0.4561
     35 O         138.5940  145.0868  162.5113 O.3     1  UNL1       -0.4640
     36 C         138.3000  144.3738  163.7979 C.3     1  UNL1        0.1678
     37 C         137.5077  143.1002  163.7854 C.3     1  UNL1        0.0473
     38 C         138.7983  144.9344  165.0969 C.3     1  UNL1        0.0473
     39 C         143.8219  143.0757  161.4714 C.3     1  UNL1        0.0491
     40 C         144.7426  143.4190  162.6048 C.3     1  UNL1        0.0750
     41 N         144.1794  143.8989  163.9096 N.3     1  UNL1       -0.2702
     42 C         144.4665  143.1438  165.1734 C.3     1  UNL1        0.0897
     43 C         143.3290  145.1340  163.9505 C.3     1  UNL1        0.0897
@<TRIPOS>BOND
     1    33    34    1
     2    34    27    1
     3    27    28   ar
     4    28    29   ar
     5    29    24    1
     6    24    25    1
     7    24    39    1
     8    39    40    1
     9    40    41    1
    10    41    42    1
    11    41    43    1
    12    24     1    1
    13     1     2    1
    14     2     3   ar
    15     3     4   ar
    16     4     5   ar
    17     5     6   ar
    18     6     7    1
    19     6     8   ar
    20     8     9   ar
    21     9    10   ar
    22    10    11   ar
    23    11    12   ar
    24    12    13    1
    25    13    14    1
    26     1    15    1
    27    15    16   ar
    28    16    17   ar
    29    17    18   ar
    30    18    19   ar
    31    19    22    1
    32    22    23    1
    33    19    20   ar
    34    20    21    1
    35    29    30   ar
    36    30    31   ar
    37    31    35    1
    38    35    36    1
    39    36    37    1
    40    36    38    1
    41    31    32   ar
    42    32    27   ar
    43    12     2   ar
    44    20    15   ar
    45    10     4   ar
    46    25    26    1
@<TRIPOS>MOLECULE
*****
 43 46 0 0 0
SMALL
GASTEIGER

@<TRIPOS>ATOM
      1 C         140.0262  141.4111  161.8083 C.3     1  UNL1        0.0799
      2 C         139.7288  140.9630  163.2087 C.ar    1  UNL1        0.0374
      3 C         140.5302  141.5043  164.3553 C.ar    1  UNL1        0.0023
      4 C         140.2329  141.0564  165.7557 C.ar    1  UNL1        0.0181
      5 C         141.0343  141.5976  166.9023 C.ar    1  UNL1        0.0082
      6 C         140.7370  141.1496  168.3027 C.ar    1  UNL1        0.0347
      7 BR        141.5383  141.6909  169.4494 Br      1  UNL1       -0.0490
      8 C         139.6384  140.1604  168.5563 C.ar    1  UNL1        0.0082
      9 C         138.8370  139.6191  167.4097 C.ar    1  UNL1        0.0197
     10 C         139.1343  140.0671  166.0094 C.ar    1  UNL1        0.0844
     11 N         138.3329  139.5258  164.8627 N.ar    1  UNL1       -0.2119
     12 C         138.6302  139.9738  163.4623 C.ar    1  UNL1        0.2211
     13 O         137.8289  139.4325  162.3157 O.3     1  UNL1       -0.4563
     14 C         138.1890  137.9803  162.2087 C.3     1  UNL1        0.2542
     15 C         140.3853  140.4019  160.7583 C.ar    1  UNL1        0.0148
     16 C         139.6694  140.4038  159.4402 C.ar    1  UNL1       -0.0014
     17 C         140.0286  139.3946  158.3902 C.ar    1  UNL1        0.0029
     18 C         141.1036  138.3834  158.6583 C.ar    1  UNL1        0.0392
     19 C         141.8195  138.3815  159.9764 C.ar    1  UNL1        0.1657
     20 C         141.4603  139.3908  161.0265 C.ar    1  UNL1        0.1702
     21 F         142.1762  139.3888  162.3446 F       1  UNL1       -0.2013
     22 O         142.8945  137.3704  160.2446 O.3     1  UNL1       -0.4692
     23 C         144.0782  137.7402  161.0885 C.3     1  UNL1        0.2526
     24 C         139.9643  142.8683  161.4580 C.3     1  UNL1        0.1162
     25 O         138.5020  142.8864  161.7917 O.3     1  UNL1       -0.3820
     26 H         138.1491  143.7788  161.6501 H       1  UNL1        0.2107
     27 C         143.3361  143.0061  159.3695 C.ar    1  UNL1        0.2272
     28 C         141.8738  143.0242  159.7032 C.ar    1  UNL1        0.0559
     29 C         141.4266  142.8501  161.1243 C.ar    1  UNL1        0.0117
     30 C         142.4417  142.6579  162.2118 C.ar    1  UNL1        0.0559
     31 C         143.9040  142.6397  161.8781 C.ar    1  UNL1        0.2270
     32 N         144.3512  142.8138  160.4570 N.ar    1  UNL1       -0.1767
     33 C         142.8179  142.9464  156.8243 C.3     1  UNL1        0.2542
     34 O         143.7833  143.1802  157.9483 O.3     1  UNL1       -0.4561
     35 O         144.9191  142.4475  162.9656 O.3     1  UNL1       -0.4640
     36 C         144.4718  142.1261  164.3608 C.3     1  UNL1        0.1678
     37 C         144.1900  140.7050  164.7495 C.3     1  UNL1        0.0473
     38 C         144.3062  143.2259  165.3674 C.3     1  UNL1        0.0473
     39 C         139.9025  144.3255  161.1077 C.3     1  UNL1        0.0491
     40 C         139.5189  145.3321  162.1516 C.3     1  UNL1        0.0750
     41 N         139.9764  145.1542  163.5690 N.3     1  UNL1       -0.2702
     42 C         138.9836  144.8123  164.6402 C.3     1  UNL1        0.0897
     43 C         141.4267  145.3183  163.9152 C.3     1  UNL1        0.0897
@<TRIPOS>BOND
     1    33    34    1
     2    34    27    1
     3    27    28   ar
     4    28    29   ar
     5    29    24    1
     6    24    25    1
     7    24    39    1
     8    39    40    1
     9    40    41    1
    10    41    42    1
    11    41    43    1
    12    24     1    1
    13     1     2    1
    14     2     3   ar
    15     3     4   ar
    16     4     5   ar
    17     5     6   ar
    18     6     7    1
    19     6     8   ar
    20     8     9   ar
    21     9    10   ar
    22    10    11   ar
    23    11    12   ar
    24    12    13    1
    25    13    14    1
    26     1    15    1
    27    15    16   ar
    28    16    17   ar
    29    17    18   ar
    30    18    19   ar
    31    19    22    1
    32    22    23    1
    33    19    20   ar
    34    20    21    1
    35    29    30   ar
    36    30    31   ar
    37    31    35    1
    38    35    36    1
    39    36    37    1
    40    36    38    1
    41    31    32   ar
    42    32    27   ar
    43    12     2   ar
    44    20    15   ar
    45    10     4   ar
    46    25    26    1
