@<TRIPOS>MOLECULE
*****
 34 38 0 0 0
SMALL
GASTEIGER

@<TRIPOS>ATOM
      1 C         139.0351  140.7200  165.0184 C.3     1  UNL1        0.1329
      2 N         139.1302  141.7422  163.9248 N.3     1  UNL1       -0.2861
      3 C         140.1604  142.8297  164.0021 C.3     1  UNL1        0.1162
      4 C         141.0956  142.8950  165.1731 C.3     1  UNL1        0.0510
      5 C         141.0006  141.8728  166.2667 C.2     1  UNL1       -0.0043
      6 C         139.9703  140.7853  166.1894 C.2     1  UNL1        0.0722
      7 N         140.1133  139.9238  167.4090 N.2     1  UNL1       -0.2525
      8 C         141.2319  140.4789  168.2401 C.2     1  UNL1        0.0627
      9 C         141.8220  140.0431  169.5484 C.3     1  UNL1        0.0717
     10 C         142.9604  140.8119  170.1508 C.2     1  UNL1       -0.0198
     11 C         143.5087  142.0164  169.4449 C.2     1  UNL1       -0.0042
     12 C         142.9187  142.4522  168.1365 C.2     1  UNL1        0.0006
     13 C         141.7802  141.6834  167.5341 C.2     1  UNL1        0.0111
     14 H         138.2209  142.2013  163.8710 H       1  UNL1        0.1240
     15 C         140.2554  143.8520  162.9085 C.ar    1  UNL1        0.1318
     16 N         140.6545  143.5877  161.4869 N.ar    1  UNL1       -0.2298
     17 C         140.6138  144.8903  160.7442 C.ar    1  UNL1        0.0996
     18 C         140.1897  145.9596  161.7068 C.ar    1  UNL1        0.0927
     19 N         139.9682  145.3179  163.0444 N.ar    1  UNL1       -0.3386
     20 H         139.6842  145.7781  163.8671 H       1  UNL1        0.1672
     21 C         140.9400  145.0887  159.2936 C.ar    1  UNL1        0.0192
     22 C         140.1006  146.0062  158.4548 C.ar    1  UNL1        0.0015
     23 C         140.4268  146.2046  157.0042 C.ar    1  UNL1        0.0000
     24 C         141.5924  145.4856  156.3925 C.ar    1  UNL1        0.0000
     25 C         142.4318  144.5681  157.2313 C.ar    1  UNL1        0.0000
     26 C         142.1057  144.3697  158.6818 C.ar    1  UNL1        0.0015
     27 C         138.5578  139.5318  165.7997 C.3     1  UNL1        0.1646
     28 O         138.3947  138.2042  165.1207 O.3     1  UNL1       -0.3519
     29 C         140.8519  137.5851  164.5471 C.3     1  UNL1        0.0346
     30 C         139.5209  137.2135  165.1304 C.3     1  UNL1        0.1423
     31 C         137.9342  140.2420  164.1188 C.3     1  UNL1        0.1646
     32 O         137.9688  140.5649  162.6543 O.3     1  UNL1       -0.3519
     33 C         137.7114  139.4878  161.6425 C.3     1  UNL1        0.1423
     34 C         138.5173  138.2231  161.6721 C.3     1  UNL1        0.0346
@<TRIPOS>BOND
     1    29    30    1
     2    30    28    1
     3    28    27    1
     4    27     1    1
     5     1    31    1
     6    31    32    1
     7    32    33    1
     8    33    34    1
     9     1     2    1
    10     2     3    1
    11     3    15    1
    12    15    16   ar
    13    16    17   ar
    14    17    21    1
    15    21    22   ar
    16    22    23   ar
    17    23    24   ar
    18    24    25   ar
    19    25    26   ar
    20    17    18   ar
    21    18    19   ar
    22     3     4    1
    23     4     5    1
    24     5     6    2
    25     6     7    1
    26     7     8    2
    27     8     9    1
    28     9    10    1
    29    10    11    2
    30    11    12    1
    31    12    13    2
    32     6     1    1
    33    13     8    1
    34    19    15   ar
    35    13     5    1
    36    26    21   ar
    37     2    14    1
    38    19    20    1
@<TRIPOS>MOLECULE
*****
 34 38 0 0 0
SMALL
GASTEIGER

@<TRIPOS>ATOM
      1 C         138.5215  141.7391  160.8292 C.3     1  UNL1        0.1329
      2 N         138.8567  141.0552  159.5369 N.3     1  UNL1       -0.2861
      3 C         139.1485  139.5840  159.5207 C.3     1  UNL1        0.1162
      4 C         139.1051  138.7966  160.7967 C.3     1  UNL1        0.0510
      5 C         138.7699  139.4805  162.0889 C.2     1  UNL1       -0.0043
      6 C         138.4781  140.9517  162.1052 C.2     1  UNL1        0.0722
      7 N         138.1801  141.3495  163.5205 N.2     1  UNL1       -0.2525
      8 C         138.2877  140.1241  164.3789 C.2     1  UNL1        0.0627
      9 C         138.1009  139.9109  165.8518 C.3     1  UNL1        0.0717
     10 C         138.2786  138.5426  166.4400 C.2     1  UNL1       -0.0198
     11 C         138.6431  137.3874  165.5553 C.2     1  UNL1       -0.0042
     12 C         138.8299  137.6006  164.0823 C.2     1  UNL1        0.0006
     13 C         138.6523  138.9690  163.4941 C.2     1  UNL1        0.0111
     14 H         139.6816  141.5232  159.1615 H       1  UNL1        0.1240
     15 C         139.4837  138.9000  158.2284 C.ar    1  UNL1        0.1318
     16 N         140.4900  137.8026  158.0469 N.ar    1  UNL1       -0.2298
     17 C         140.4996  137.4178  156.5971 C.ar    1  UNL1        0.0996
     18 C         139.4993  138.2774  155.8826 C.ar    1  UNL1        0.0927
     19 N         138.8714  139.1935  156.8908 N.ar    1  UNL1       -0.3386
     20 H         138.1790  139.8688  156.7070 H       1  UNL1        0.1672
     21 C         141.3588  136.3592  155.9716 C.ar    1  UNL1        0.0192
     22 C         140.9054  135.6680  154.7199 C.ar    1  UNL1        0.0015
     23 C         141.7645  134.6095  154.0944 C.ar    1  UNL1        0.0000
     24 C         143.0771  134.2421  154.7206 C.ar    1  UNL1        0.0000
     25 C         143.5305  134.9332  155.9722 C.ar    1  UNL1        0.0000
     26 C         142.6714  135.9918  156.5977 C.ar    1  UNL1        0.0015
     27 C         138.1575  142.8277  161.7949 C.3     1  UNL1        0.1646
     28 O         138.8125  144.1731  161.6900 O.3     1  UNL1       -0.3519
     29 C         138.9621  144.7918  164.2089 C.3     1  UNL1        0.0346
     30 C         139.5914  144.7204  162.8492 C.3     1  UNL1        0.1423
     31 C         138.4385  142.9045  159.8886 C.3     1  UNL1        0.1646
     32 O         139.3843  143.0008  158.7284 O.3     1  UNL1       -0.3519
     33 C         140.0407  144.3097  158.4024 C.3     1  UNL1        0.1423
     34 C         141.2348  144.7658  159.1872 C.3     1  UNL1        0.0346
@<TRIPOS>BOND
     1    29    30    1
     2    30    28    1
     3    28    27    1
     4    27     1    1
     5     1    31    1
     6    31    32    1
     7    32    33    1
     8    33    34    1
     9     1     2    1
    10     2     3    1
    11     3    15    1
    12    15    16   ar
    13    16    17   ar
    14    17    21    1
    15    21    22   ar
    16    22    23   ar
    17    23    24   ar
    18    24    25   ar
    19    25    26   ar
    20    17    18   ar
    21    18    19   ar
    22     3     4    1
    23     4     5    1
    24     5     6    2
    25     6     7    1
    26     7     8    2
    27     8     9    1
    28     9    10    1
    29    10    11    2
    30    11    12    1
    31    12    13    2
    32     6     1    1
    33    13     8    1
    34    19    15   ar
    35    13     5    1
    36    26    21   ar
    37     2    14    1
    38    19    20    1
@<TRIPOS>MOLECULE
*****
 34 38 0 0 0
SMALL
GASTEIGER

@<TRIPOS>ATOM
      1 C         140.8697  140.3129  164.6977 C.3     1  UNL1        0.1329
      2 N         140.8121  141.3373  163.6036 N.3     1  UNL1       -0.2861
      3 C         140.6513  142.7894  163.9435 C.3     1  UNL1        0.1162
      4 C         140.5482  143.2170  165.3776 C.3     1  UNL1        0.0510
      5 C         140.6058  142.1926  166.4717 C.2     1  UNL1       -0.0043
      6 C         140.7666  140.7405  166.1318 C.2     1  UNL1        0.0722
      7 N         140.7913  139.9640  167.4149 N.2     1  UNL1       -0.2525
      8 C         140.6458  140.9362  168.5479 C.2     1  UNL1        0.0627
      9 C         140.6029  140.7453  170.0351 C.3     1  UNL1        0.0717
     10 C         140.4454  141.9317  170.9393 C.2     1  UNL1       -0.0198
     11 C         140.3307  143.3090  170.3563 C.2     1  UNL1       -0.0042
     12 C         140.3736  143.4999  168.8692 C.2     1  UNL1        0.0006
     13 C         140.5312  142.3136  167.9650 C.2     1  UNL1        0.0111
     14 H         140.0246  141.0859  163.0059 H       1  UNL1        0.1240
     15 C         140.5936  143.8140  162.8494 C.ar    1  UNL1        0.1318
     16 N         140.9568  143.5896  161.4115 N.ar    1  UNL1       -0.2298
     17 C         140.7503  144.8797  160.6745 C.ar    1  UNL1        0.0996
     18 C         140.2595  145.9013  161.6570 C.ar    1  UNL1        0.0927
     19 N         140.1626  145.2427  163.0012 N.ar    1  UNL1       -0.3386
     20 H         139.8679  145.6726  163.8363 H       1  UNL1        0.1672
     21 C         140.9922  145.1080  159.2118 C.ar    1  UNL1        0.0192
     22 C         142.1283  144.4125  158.5220 C.ar    1  UNL1        0.0015
     23 C         142.3702  144.6408  157.0594 C.ar    1  UNL1        0.0000
     24 C         141.4761  145.5645  156.2865 C.ar    1  UNL1        0.0000
     25 C         140.3400  146.2599  156.9763 C.ar    1  UNL1        0.0000
     26 C         140.0981  146.0316  158.4390 C.ar    1  UNL1        0.0015
     27 C         140.9760  138.9790  165.3756 C.3     1  UNL1        0.1646
     28 O         140.2073  137.8051  164.8455 O.3     1  UNL1       -0.3519
     29 C         138.0703  138.4302  166.1845 C.3     1  UNL1        0.0346
     30 C         138.9140  137.4026  165.4901 C.3     1  UNL1        0.1423
     31 C         141.0097  139.4220  163.4991 C.3     1  UNL1        0.1646
     32 O         142.1164  139.6580  162.5144 O.3     1  UNL1       -0.3519
     33 C         143.4296  138.9518  162.6784 C.3     1  UNL1        0.1423
     34 C         144.3972  139.4029  163.7320 C.3     1  UNL1        0.0346
@<TRIPOS>BOND
     1    29    30    1
     2    30    28    1
     3    28    27    1
     4    27     1    1
     5     1    31    1
     6    31    32    1
     7    32    33    1
     8    33    34    1
     9     1     2    1
    10     2     3    1
    11     3    15    1
    12    15    16   ar
    13    16    17   ar
    14    17    21    1
    15    21    22   ar
    16    22    23   ar
    17    23    24   ar
    18    24    25   ar
    19    25    26   ar
    20    17    18   ar
    21    18    19   ar
    22     3     4    1
    23     4     5    1
    24     5     6    2
    25     6     7    1
    26     7     8    2
    27     8     9    1
    28     9    10    1
    29    10    11    2
    30    11    12    1
    31    12    13    2
    32     6     1    1
    33    13     8    1
    34    19    15   ar
    35    13     5    1
    36    26    21   ar
    37     2    14    1
    38    19    20    1
@<TRIPOS>MOLECULE
*****
 34 38 0 0 0
SMALL
GASTEIGER

@<TRIPOS>ATOM
      1 C         141.0802  142.1049  162.4518 C.3     1  UNL1        0.1329
      2 N         141.6263  141.5888  161.1535 N.3     1  UNL1       -0.2861
      3 C         141.4682  140.1406  160.7962 C.3     1  UNL1        0.1162
      4 C         140.7639  139.2085  161.7370 C.3     1  UNL1        0.0510
      5 C         140.2179  139.7245  163.0353 C.2     1  UNL1       -0.0043
      6 C         140.3760  141.1727  163.3927 C.2     1  UNL1        0.0722
      7 N         139.7383  141.3917  164.7326 N.2     1  UNL1       -0.2525
      8 C         139.1861  140.0789  165.2033 C.2     1  UNL1        0.0627
      9 C         138.4517  139.6886  166.4516 C.3     1  UNL1        0.0717
     10 C         138.0136  138.2680  166.6508 C.2     1  UNL1       -0.0198
     11 C         138.3100  137.2376  165.6018 C.2     1  UNL1       -0.0042
     12 C         139.0444  137.6278  164.3535 C.2     1  UNL1        0.0006
     13 C         139.4825  139.0485  164.1543 C.2     1  UNL1        0.0111
     14 H         142.6275  141.7836  161.1571 H       1  UNL1        0.1240
     15 C         142.0143  139.6245  159.4978 C.ar    1  UNL1        0.1318
     16 N         141.6729  138.3118  158.8575 N.ar    1  UNL1       -0.2298
     17 C         142.4452  138.2065  157.5759 C.ar    1  UNL1        0.0996
     18 C         143.2638  139.4542  157.4242 C.ar    1  UNL1        0.0927
     19 N         142.9975  140.3306  158.6121 N.ar    1  UNL1       -0.3386
     20 H         143.3978  141.2141  158.7807 H       1  UNL1        0.1672
     21 C         142.4057  137.0555  156.6147 C.ar    1  UNL1        0.0192
     22 C         143.6834  136.4184  156.1548 C.ar    1  UNL1        0.0015
     23 C         143.6440  135.2675  155.1937 C.ar    1  UNL1        0.0000
     24 C         142.3269  134.7537  154.6925 C.ar    1  UNL1        0.0000
     25 C         141.0492  135.3908  155.1525 C.ar    1  UNL1        0.0000
     26 C         141.0886  136.5417  156.1136 C.ar    1  UNL1        0.0015
     27 C         140.7373  143.0598  163.5566 C.3     1  UNL1        0.1646
     28 O         140.1542  144.4033  163.2326 O.3     1  UNL1       -0.3519
     29 C         138.6755  144.8414  165.3234 C.3     1  UNL1        0.0346
     30 C         138.8431  144.8164  163.8331 C.3     1  UNL1        0.1423
     31 C         141.6654  143.3686  161.8947 C.3     1  UNL1        0.1646
     32 O         143.1123  143.4157  161.5019 O.3     1  UNL1       -0.3519
     33 C         144.1396  143.9026  162.4805 C.3     1  UNL1        0.1423
     34 C         143.8195  145.0456  163.3975 C.3     1  UNL1        0.0346
@<TRIPOS>BOND
     1    29    30    1
     2    30    28    1
     3    28    27    1
     4    27     1    1
     5     1    31    1
     6    31    32    1
     7    32    33    1
     8    33    34    1
     9     1     2    1
    10     2     3    1
    11     3    15    1
    12    15    16   ar
    13    16    17   ar
    14    17    21    1
    15    21    22   ar
    16    22    23   ar
    17    23    24   ar
    18    24    25   ar
    19    25    26   ar
    20    17    18   ar
    21    18    19   ar
    22     3     4    1
    23     4     5    1
    24     5     6    2
    25     6     7    1
    26     7     8    2
    27     8     9    1
    28     9    10    1
    29    10    11    2
    30    11    12    1
    31    12    13    2
    32     6     1    1
    33    13     8    1
    34    19    15   ar
    35    13     5    1
    36    26    21   ar
    37     2    14    1
    38    19    20    1
@<TRIPOS>MOLECULE
*****
 34 38 0 0 0
SMALL
GASTEIGER

@<TRIPOS>ATOM
      1 C         142.2480  143.3413  161.0253 C.3     1  UNL1        0.1329
      2 N         142.9498  143.0387  159.7346 N.3     1  UNL1       -0.2861
      3 C         143.8544  141.8464  159.6344 C.3     1  UNL1        0.1162
      4 C         144.0573  140.9567  160.8250 C.3     1  UNL1        0.0510
      5 C         143.3556  141.2594  162.1157 C.2     1  UNL1       -0.0043
      6 C         142.4510  142.4516  162.2159 C.2     1  UNL1        0.0722
      7 N         141.8976  142.4977  163.6093 N.2     1  UNL1       -0.2525
      8 C         142.4602  141.3340  164.3703 C.2     1  UNL1        0.0627
      9 C         142.2683  140.8723  165.7845 C.3     1  UNL1        0.0717
     10 C         142.9776  139.6453  166.2756 C.2     1  UNL1       -0.0198
     11 C         143.8788  138.8799  165.3525 C.2     1  UNL1       -0.0042
     12 C         144.0706  139.3415  163.9383 C.2     1  UNL1        0.0006
     13 C         143.3613  140.5686  163.4472 C.2     1  UNL1        0.0111
     14 H         143.5149  143.8569  159.5078 H       1  UNL1        0.1240
     15 C         144.5562  141.5437  158.3437 C.ar    1  UNL1        0.1318
     16 N         145.5532  142.4270  157.6541 N.ar    1  UNL1       -0.2298
     17 C         145.9974  141.7338  156.4001 C.ar    1  UNL1        0.0996
     18 C         145.2748  140.4221  156.3148 C.ar    1  UNL1        0.0927
     19 N         144.3841  140.3046  157.5160 N.ar    1  UNL1       -0.3386
     20 H         143.7907  139.5472  157.7245 H       1  UNL1        0.1672
     21 C         146.9899  142.2600  155.4061 C.ar    1  UNL1        0.0192
     22 C         148.3692  141.6742  155.3414 C.ar    1  UNL1        0.0015
     23 C         149.3617  142.2003  154.3474 C.ar    1  UNL1        0.0000
     24 C         148.9748  143.3123  153.4180 C.ar    1  UNL1        0.0000
     25 C         147.5955  143.8982  153.4827 C.ar    1  UNL1        0.0000
     26 C         146.6030  143.3720  154.4767 C.ar    1  UNL1        0.0015
     27 C         141.3699  144.0368  162.0230 C.3     1  UNL1        0.1646
     28 O         139.9213  144.2710  161.7121 O.3     1  UNL1       -0.3519
     29 C         137.7162  144.2209  163.0852 C.3     1  UNL1        0.0346
     30 C         139.0210  144.8788  162.7466 C.3     1  UNL1        0.1423
     31 C         141.7401  144.4725  160.1813 C.3     1  UNL1        0.1646
     32 O         142.3914  144.7771  158.8648 O.3     1  UNL1       -0.3519
     33 C         141.7942  145.8080  157.9533 C.3     1  UNL1        0.1423
     34 C         140.3091  145.8578  157.7486 C.3     1  UNL1        0.0346
@<TRIPOS>BOND
     1    29    30    1
     2    30    28    1
     3    28    27    1
     4    27     1    1
     5     1    31    1
     6    31    32    1
     7    32    33    1
     8    33    34    1
     9     1     2    1
    10     2     3    1
    11     3    15    1
    12    15    16   ar
    13    16    17   ar
    14    17    21    1
    15    21    22   ar
    16    22    23   ar
    17    23    24   ar
    18    24    25   ar
    19    25    26   ar
    20    17    18   ar
    21    18    19   ar
    22     3     4    1
    23     4     5    1
    24     5     6    2
    25     6     7    1
    26     7     8    2
    27     8     9    1
    28     9    10    1
    29    10    11    2
    30    11    12    1
    31    12    13    2
    32     6     1    1
    33    13     8    1
    34    19    15   ar
    35    13     5    1
    36    26    21   ar
    37     2    14    1
    38    19    20    1
@<TRIPOS>MOLECULE
*****
 34 38 0 0 0
SMALL
GASTEIGER

@<TRIPOS>ATOM
      1 C         143.2757  142.3023  160.6959 C.3     1  UNL1        0.1329
      2 N         142.6317  142.3738  162.0487 N.3     1  UNL1       -0.2861
      3 C         141.4724  143.2973  162.2795 C.3     1  UNL1        0.1162
      4 C         140.9573  144.1493  161.1576 C.3     1  UNL1        0.0510
      5 C         141.6013  144.0778  159.8048 C.2     1  UNL1       -0.0043
      6 C         142.7605  143.1543  159.5740 C.2     1  UNL1        0.0722
      7 N         143.1895  143.2975  158.1438 N.2     1  UNL1       -0.2525
      8 C         142.2954  144.3095  157.4907 C.2     1  UNL1        0.0627
      9 C         142.2482  144.8542  156.0939 C.3     1  UNL1        0.0717
     10 C         141.2195  145.8811  155.7238 C.2     1  UNL1       -0.0198
     11 C         140.2379  146.3634  156.7504 C.2     1  UNL1       -0.0042
     12 C         140.2851  145.8187  158.1472 C.2     1  UNL1        0.0006
     13 C         141.3138  144.7918  158.5173 C.2     1  UNL1        0.0111
     14 H         143.3608  142.6460  162.7079 H       1  UNL1        0.1240
     15 C         140.8283  143.3688  163.6324 C.ar    1  UNL1        0.1318
     16 N         141.0979  142.4499  164.7869 N.ar    1  UNL1       -0.2298
     17 C         140.2378  142.8849  165.9362 C.ar    1  UNL1        0.0996
     18 C         139.4367  144.0727  165.4920 C.ar    1  UNL1        0.0927
     19 N         139.8016  144.3718  164.0682 N.ar    1  UNL1       -0.3386
     20 H         139.4321  145.0987  163.5165 H       1  UNL1        0.1672
     21 C         140.1877  142.2446  167.2918 C.ar    1  UNL1        0.0192
     22 C         140.4774  143.0595  168.5173 C.ar    1  UNL1        0.0015
     23 C         140.4273  142.4192  169.8729 C.ar    1  UNL1        0.0000
     24 C         140.0875  140.9640  170.0028 C.ar    1  UNL1        0.0000
     25 C         139.7978  140.1491  168.7772 C.ar    1  UNL1        0.0000
     26 C         139.8479  140.7894  167.4217 C.ar    1  UNL1        0.0015
     27 C         144.2116  141.8845  159.6005 C.3     1  UNL1        0.1646
     28 O         144.3106  140.4398  159.2093 O.3     1  UNL1       -0.3519
     29 C         142.0274  139.7699  158.1662 C.3     1  UNL1        0.0346
     30 C         143.5150  139.9210  158.0483 C.3     1  UNL1        0.1423
     31 C         144.1159  141.3052  161.4374 C.3     1  UNL1        0.1646
     32 O         145.3863  141.7431  162.1038 O.3     1  UNL1       -0.3519
     33 C         145.6424  141.3863  163.5382 C.3     1  UNL1        0.1423
     34 C         145.1543  140.0772  164.0839 C.3     1  UNL1        0.0346
@<TRIPOS>BOND
     1    29    30    1
     2    30    28    1
     3    28    27    1
     4    27     1    1
     5     1    31    1
     6    31    32    1
     7    32    33    1
     8    33    34    1
     9     1     2    1
    10     2     3    1
    11     3    15    1
    12    15    16   ar
    13    16    17   ar
    14    17    21    1
    15    21    22   ar
    16    22    23   ar
    17    23    24   ar
    18    24    25   ar
    19    25    26   ar
    20    17    18   ar
    21    18    19   ar
    22     3     4    1
    23     4     5    1
    24     5     6    2
    25     6     7    1
    26     7     8    2
    27     8     9    1
    28     9    10    1
    29    10    11    2
    30    11    12    1
    31    12    13    2
    32     6     1    1
    33    13     8    1
    34    19    15   ar
    35    13     5    1
    36    26    21   ar
    37     2    14    1
    38    19    20    1
@<TRIPOS>MOLECULE
*****
 34 38 0 0 0
SMALL
GASTEIGER

@<TRIPOS>ATOM
      1 C         142.3304  135.6593  156.0239 C.3     1  UNL1        0.1329
      2 N         142.8840  136.2895  157.2674 N.3     1  UNL1       -0.2861
      3 C         142.2584  137.5364  157.8187 C.3     1  UNL1        0.1162
      4 C         141.0791  138.1530  157.1265 C.3     1  UNL1        0.0510
      5 C         140.5255  137.5228  155.8830 C.2     1  UNL1       -0.0043
      6 C         141.1511  136.2760  155.3317 C.2     1  UNL1        0.0722
      7 N         140.3929  135.8832  154.0985 N.2     1  UNL1       -0.2525
      8 C         139.2987  136.8873  153.8876 C.2     1  UNL1        0.0627
      9 C         138.2383  137.0099  152.8338 C.3     1  UNL1        0.0717
     10 C         137.2598  138.1457  152.8829 C.2     1  UNL1       -0.0198
     11 C         137.3418  139.1590  153.9859 C.2     1  UNL1       -0.0042
     12 C         138.4022  139.0365  155.0397 C.2     1  UNL1        0.0006
     13 C         139.3806  137.9007  154.9905 C.2     1  UNL1        0.0111
     14 H         143.8612  136.5104  157.0755 H       1  UNL1        0.1240
     15 C         142.8120  138.1666  159.0622 C.ar    1  UNL1        0.1318
     16 N         142.4711  137.7833  160.4717 N.ar    1  UNL1       -0.2298
     17 C         143.2521  138.6705  161.3952 C.ar    1  UNL1        0.0996
     18 C         144.0757  139.6022  160.5564 C.ar    1  UNL1        0.0927
     19 N         143.8037  139.2908  159.1145 N.ar    1  UNL1       -0.3386
     20 H         144.2055  139.7446  158.3387 H       1  UNL1        0.1672
     21 C         143.2159  138.6327  162.8943 C.ar    1  UNL1        0.0192
     22 C         142.0205  138.0663  163.6016 C.ar    1  UNL1        0.0015
     23 C         141.9842  138.0285  165.1006 C.ar    1  UNL1        0.0000
     24 C         143.1433  138.5570  165.8924 C.ar    1  UNL1        0.0000
     25 C         144.3387  139.1235  165.1852 C.ar    1  UNL1        0.0000
     26 C         144.3750  139.1613  163.6862 C.ar    1  UNL1        0.0015
     27 C         142.1665  134.6991  154.8831 C.3     1  UNL1        0.1646
     28 O         141.9598  133.2387  155.1560 O.3     1  UNL1       -0.3519
     29 C         140.5764  131.1147  154.5862 C.3     1  UNL1        0.0346
     30 C         141.2523  132.3805  154.1495 C.3     1  UNL1        0.1423
     31 C         143.4527  134.7092  156.3198 C.3     1  UNL1        0.1646
     32 O         143.6127  134.1441  157.7001 O.3     1  UNL1       -0.3519
     33 C         144.6581  133.1021  157.9674 C.3     1  UNL1        0.1423
     34 C         144.7753  131.9089  157.0661 C.3     1  UNL1        0.0346
@<TRIPOS>BOND
     1    29    30    1
     2    30    28    1
     3    28    27    1
     4    27     1    1
     5     1    31    1
     6    31    32    1
     7    32    33    1
     8    33    34    1
     9     1     2    1
    10     2     3    1
    11     3    15    1
    12    15    16   ar
    13    16    17   ar
    14    17    21    1
    15    21    22   ar
    16    22    23   ar
    17    23    24   ar
    18    24    25   ar
    19    25    26   ar
    20    17    18   ar
    21    18    19   ar
    22     3     4    1
    23     4     5    1
    24     5     6    2
    25     6     7    1
    26     7     8    2
    27     8     9    1
    28     9    10    1
    29    10    11    2
    30    11    12    1
    31    12    13    2
    32     6     1    1
    33    13     8    1
    34    19    15   ar
    35    13     5    1
    36    26    21   ar
    37     2    14    1
    38    19    20    1
@<TRIPOS>MOLECULE
*****
 34 38 0 0 0
SMALL
GASTEIGER

@<TRIPOS>ATOM
      1 C         141.2885  142.3574  163.3114 C.3     1  UNL1        0.1329
      2 N         141.9246  142.0046  161.9995 N.3     1  UNL1       -0.2861
      3 C         141.7817  140.6180  161.4456 C.3     1  UNL1        0.1162
      4 C         141.0026  139.5842  162.2034 C.3     1  UNL1        0.0510
      5 C         140.3665  139.9369  163.5152 C.2     1  UNL1       -0.0043
      6 C         140.5094  141.3235  164.0692 C.2     1  UNL1        0.0722
      7 N         139.7765  141.3780  165.3768 N.2     1  UNL1       -0.2525
      8 C         139.1806  140.0251  165.6310 C.2     1  UNL1        0.0627
      9 C         138.3532  139.4891  166.7614 C.3     1  UNL1        0.0717
     10 C         137.8903  138.0625  166.7413 C.2     1  UNL1       -0.0198
     11 C         138.2550  137.1718  165.5908 C.2     1  UNL1       -0.0042
     12 C         139.0824  137.7078  164.4603 C.2     1  UNL1        0.0006
     13 C         139.5453  139.1344  164.4804 C.2     1  UNL1        0.0111
     14 H         142.9243  142.1797  162.1006 H       1  UNL1        0.1240
     15 C         142.4178  140.2652  160.1337 C.ar    1  UNL1        0.1318
     16 N         143.4549  141.0730  159.4113 N.ar    1  UNL1       -0.2298
     17 C         143.8066  140.3497  158.1451 C.ar    1  UNL1        0.0996
     18 C         142.9869  139.0950  158.0850 C.ar    1  UNL1        0.0927
     19 N         142.1285  139.0427  159.3140 N.ar    1  UNL1       -0.3386
     20 H         141.4878  138.3311  159.5426 H       1  UNL1        0.1672
     21 C         144.8032  140.8019  157.1191 C.ar    1  UNL1        0.0192
     22 C         144.9089  140.0813  155.8078 C.ar    1  UNL1        0.0015
     23 C         145.9054  140.5334  154.7819 C.ar    1  UNL1        0.0000
     24 C         146.7961  141.7061  155.0672 C.ar    1  UNL1        0.0000
     25 C         146.6903  142.4266  156.3786 C.ar    1  UNL1        0.0000
     26 C         145.6938  141.9745  157.4045 C.ar    1  UNL1        0.0015
     27 C         140.8727  143.1668  164.5039 C.3     1  UNL1        0.1646
     28 O         140.3235  144.5500  164.3168 O.3     1  UNL1       -0.3519
     29 C         138.3296  145.0672  165.9001 C.3     1  UNL1        0.0346
     30 C         138.8604  144.8100  164.5210 C.3     1  UNL1        0.1423
     31 C         141.9231  143.6723  162.9677 C.3     1  UNL1        0.1646
     32 O         143.3809  143.7333  162.6199 O.3     1  UNL1       -0.3519
     33 C         144.4015  143.9418  163.6993 C.3     1  UNL1        0.1423
     34 C         144.7715  142.8092  164.6104 C.3     1  UNL1        0.0346
@<TRIPOS>BOND
     1    29    30    1
     2    30    28    1
     3    28    27    1
     4    27     1    1
     5     1    31    1
     6    31    32    1
     7    32    33    1
     8    33    34    1
     9     1     2    1
    10     2     3    1
    11     3    15    1
    12    15    16   ar
    13    16    17   ar
    14    17    21    1
    15    21    22   ar
    16    22    23   ar
    17    23    24   ar
    18    24    25   ar
    19    25    26   ar
    20    17    18   ar
    21    18    19   ar
    22     3     4    1
    23     4     5    1
    24     5     6    2
    25     6     7    1
    26     7     8    2
    27     8     9    1
    28     9    10    1
    29    10    11    2
    30    11    12    1
    31    12    13    2
    32     6     1    1
    33    13     8    1
    34    19    15   ar
    35    13     5    1
    36    26    21   ar
    37     2    14    1
    38    19    20    1
@<TRIPOS>MOLECULE
*****
 34 38 0 0 0
SMALL
GASTEIGER

@<TRIPOS>ATOM
      1 C         143.0377  143.1026  159.4557 C.3     1  UNL1        0.1329
      2 N         142.4976  143.0607  160.8544 N.3     1  UNL1       -0.2861
      3 C         141.3044  143.8917  161.2228 C.3     1  UNL1        0.1162
      4 C         140.6513  144.7646  160.1925 C.3     1  UNL1        0.0510
      5 C         141.1914  144.8065  158.7937 C.2     1  UNL1       -0.0043
      6 C         142.3846  143.9755  158.4253 C.2     1  UNL1        0.0722
      7 N         142.6913  144.2209  156.9777 N.2     1  UNL1       -0.2525
      8 C         141.6876  145.2037  156.4514 C.2     1  UNL1        0.0627
      9 C         141.4980  145.8157  155.0951 C.3     1  UNL1        0.0717
     10 C         140.3815  146.7896  154.8613 C.2     1  UNL1       -0.0198
     11 C         139.4545  147.1515  155.9837 C.2     1  UNL1       -0.0042
     12 C         139.6441  146.5395  157.3399 C.2     1  UNL1        0.0006
     13 C         140.7606  145.5655  157.5738 C.2     1  UNL1        0.0111
     14 H         143.2574  143.3464  161.4721 H       1  UNL1        0.1240
     15 C         140.7642  143.8499  162.6216 C.ar    1  UNL1        0.1318
     16 N         140.8974  142.7073  163.5843 N.ar    1  UNL1       -0.2298
     17 C         140.2116  143.0946  164.8609 C.ar    1  UNL1        0.0996
     18 C         139.6546  144.4764  164.6872 C.ar    1  UNL1        0.0927
     19 N         139.9961  144.9432  163.3032 N.ar    1  UNL1       -0.3386
     20 H         139.7580  145.8143  162.9111 H       1  UNL1        0.1672
     21 C         140.1020  142.2484  166.0947 C.ar    1  UNL1        0.0192
     22 C         139.5511  140.8563  166.0028 C.ar    1  UNL1        0.0015
     23 C         139.4415  140.0101  167.2365 C.ar    1  UNL1        0.0000
     24 C         139.8829  140.5561  168.5620 C.ar    1  UNL1        0.0000
     25 C         140.4338  141.9482  168.6539 C.ar    1  UNL1        0.0000
     26 C         140.5434  142.7944  167.4202 C.ar    1  UNL1        0.0015
     27 C         143.9098  142.8055  158.2719 C.3     1  UNL1        0.1646
     28 O         144.3109  141.3916  157.9721 O.3     1  UNL1       -0.3519
     29 C         146.3772  142.1266  156.5790 C.3     1  UNL1        0.0346
     30 C         145.3220  141.1101  156.9004 C.3     1  UNL1        0.1423
     31 C         143.9936  142.1266  160.0749 C.3     1  UNL1        0.1646
     32 O         144.7179  142.4851  161.3386 O.3     1  UNL1       -0.3519
     33 C         145.0543  141.4188  162.3386 C.3     1  UNL1        0.1423
     34 C         145.6722  141.7919  163.6535 C.3     1  UNL1        0.0346
@<TRIPOS>BOND
     1    29    30    1
     2    30    28    1
     3    28    27    1
     4    27     1    1
     5     1    31    1
     6    31    32    1
     7    32    33    1
     8    33    34    1
     9     1     2    1
    10     2     3    1
    11     3    15    1
    12    15    16   ar
    13    16    17   ar
    14    17    21    1
    15    21    22   ar
    16    22    23   ar
    17    23    24   ar
    18    24    25   ar
    19    25    26   ar
    20    17    18   ar
    21    18    19   ar
    22     3     4    1
    23     4     5    1
    24     5     6    2
    25     6     7    1
    26     7     8    2
    27     8     9    1
    28     9    10    1
    29    10    11    2
    30    11    12    1
    31    12    13    2
    32     6     1    1
    33    13     8    1
    34    19    15   ar
    35    13     5    1
    36    26    21   ar
    37     2    14    1
    38    19    20    1
