@<TRIPOS>MOLECULE
*****
 36 40 0 0 0
SMALL
GASTEIGER

@<TRIPOS>ATOM
      1 N         137.8590  142.9489  163.3978 N.3     1  UNL1       -0.2711
      2 C         137.7751  141.7608  164.3096 C.3     1  UNL1        0.0735
      3 C         137.7842  140.3743  163.7375 C.3     1  UNL1        0.0331
      4 C         137.8773  140.1758  162.2536 C.3     1  UNL1        0.0570
      5 C         137.9612  141.3639  161.3418 C.3     1  UNL1        0.0331
      6 C         137.9521  142.7504  161.9139 C.3     1  UNL1        0.0735
      7 N         137.8864  138.7892  161.6815 N.3     1  UNL1       -0.2934
      8 H         137.2887  138.8076  160.8552 H       1  UNL1        0.1236
      9 C         139.1820  138.1583  161.2648 C.3     1  UNL1        0.1152
     10 C         140.4010  138.3097  162.1257 C.ar    1  UNL1        0.0765
     11 C         140.5706  137.4504  163.3433 C.ar    1  UNL1        0.0193
     12 C         141.7896  137.6018  164.2042 C.ar    1  UNL1        0.0411
     13 C         142.8390  138.6125  163.8475 C.ar    1  UNL1        0.1708
     14 C         142.6693  139.4719  162.6298 C.ar    1  UNL1        0.1682
     15 N         141.4503  139.3205  161.7689 N.ar    1  UNL1       -0.2304
     16 N         143.7186  140.4827  162.2730 N.am    1  UNL1       -0.2639
     17 C         144.9376  140.6340  163.1339 C.2     1  UNL1        0.2718
     18 O         145.9869  141.6448  162.7771 O.2     1  UNL1       -0.2707
     19 C         145.1073  139.7747  164.3515 C.3     1  UNL1        0.2898
     20 O         144.0579  138.7639  164.7083 O.3     1  UNL1       -0.4628
     21 H         143.6072  141.0467  161.4738 H       1  UNL1        0.1565
     22 C         137.8498  144.3355  163.9699 C.3     1  UNL1        0.0942
     23 C         139.0327  144.8346  164.7457 C.3     1  UNL1        0.1157
     24 C         140.8536  142.0405  167.7669 C.ar    1  UNL1        0.0699
     25 C         142.2123  141.4540  167.5226 C.ar    1  UNL1        0.0135
     26 C         142.9642  141.7989  166.2713 C.ar    1  UNL1        0.0389
     27 C         142.3572  142.7302  165.2642 C.ar    1  UNL1        0.1528
     28 C         140.9985  143.3167  165.5085 C.ar    1  UNL1        0.0888
     29 C         140.2466  142.9718  166.7599 C.ar    1  UNL1        0.0283
     30 N         140.3914  144.2481  164.5015 N.am    1  UNL1       -0.2515
     31 C         141.1433  144.5930  163.2501 C.2     1  UNL1        0.2740
     32 O         140.5363  145.5243  162.2431 O.2     1  UNL1       -0.2705
     33 C         142.5021  144.0064  163.0059 C.3     1  UNL1        0.2900
     34 O         143.1091  143.0751  164.0129 O.3     1  UNL1       -0.4643
     35 N         139.3499  141.3507  170.2695 N.1     1  UNL1       -0.1908
     36 C         140.1017  141.6956  169.0182 C.1     1  UNL1        0.1005
@<TRIPOS>BOND
     1    35    36    3
     2    36    24    1
     3    24    25   ar
     4    25    26   ar
     5    26    27   ar
     6    27    28   ar
     7    28    29   ar
     8    28    30    1
     9    30    23    1
    10    23    22    1
    11    22     1    1
    12     1     2    1
    13     2     3    1
    14     3     4    1
    15     4     7    1
    16     7     9    1
    17     9    10    1
    18    10    11   ar
    19    11    12   ar
    20    12    13   ar
    21    13    14   ar
    22    14    15   ar
    23    14    16    1
    24    16    17   am
    25    17    18    2
    26    17    19    1
    27    19    20    1
    28     4     5    1
    29     5     6    1
    30    30    31   am
    31    31    32    2
    32    31    33    1
    33    33    34    1
    34    29    24   ar
    35     6     1    1
    36    34    27    1
    37    15    10   ar
    38    20    13    1
    39     7     8    1
    40    16    21    1
@<TRIPOS>MOLECULE
*****
 36 40 0 0 0
SMALL
GASTEIGER

@<TRIPOS>ATOM
      1 N         144.6042  140.3104  163.4174 N.3     1  UNL1       -0.2711
      2 C         144.1796  140.1864  161.9841 C.3     1  UNL1        0.0735
      3 C         143.1276  139.1897  161.5970 C.3     1  UNL1        0.0331
      4 C         142.5002  138.3170  162.6432 C.3     1  UNL1        0.0570
      5 C         142.9248  138.4410  164.0765 C.3     1  UNL1        0.0331
      6 C         143.9768  139.4376  164.4636 C.3     1  UNL1        0.0735
      7 N         141.4481  137.3202  162.2562 N.3     1  UNL1       -0.2934
      8 H         141.3223  136.6995  163.0557 H       1  UNL1        0.1236
      9 C         140.0817  137.7902  161.8535 C.3     1  UNL1        0.1152
     10 C         139.4572  138.9637  162.5483 C.ar    1  UNL1        0.0765
     11 C         138.7623  138.7735  163.8639 C.ar    1  UNL1        0.0193
     12 C         138.1377  139.9470  164.5588 C.ar    1  UNL1        0.0411
     13 C         138.2081  141.3107  163.9380 C.ar    1  UNL1        0.1708
     14 C         138.9031  141.5009  162.6223 C.ar    1  UNL1        0.1682
     15 N         139.5276  140.3274  161.9275 N.ar    1  UNL1       -0.2304
     16 N         138.9735  142.8646  162.0015 N.am    1  UNL1       -0.2639
     17 C         138.3490  144.0381  162.6964 C.2     1  UNL1        0.2718
     18 O         138.4194  145.4018  162.0756 O.2     1  UNL1       -0.2707
     19 C         137.6540  143.8479  164.0120 C.3     1  UNL1        0.2898
     20 O         137.5836  142.4842  164.6328 O.3     1  UNL1       -0.4628
     21 H         139.4297  142.9894  161.1380 H       1  UNL1        0.1565
     22 C         145.6563  141.3071  163.8044 C.3     1  UNL1        0.0942
     23 C         145.2663  142.5764  164.5021 C.3     1  UNL1        0.1157
     24 C         142.2738  141.7204  167.7519 C.ar    1  UNL1        0.0699
     25 C         140.8714  142.2397  167.6358 C.ar    1  UNL1        0.0135
     26 C         140.4664  143.0444  166.4364 C.ar    1  UNL1        0.0389
     27 C         141.4639  143.3297  165.3531 C.ar    1  UNL1        0.1528
     28 C         142.8663  142.8104  165.4693 C.ar    1  UNL1        0.0888
     29 C         143.2713  142.0058  166.6687 C.ar    1  UNL1        0.0283
     30 N         143.8639  143.0958  164.3859 N.am    1  UNL1       -0.2515
     31 C         143.4590  143.9004  163.1865 C.2     1  UNL1        0.2740
     32 O         144.4565  144.1857  162.1032 O.2     1  UNL1       -0.2705
     33 C         142.0565  144.4197  163.0704 C.3     1  UNL1        0.2900
     34 O         141.0590  144.1344  164.1537 O.3     1  UNL1       -0.4643
     35 N         143.0836  140.1111  170.1508 N.1     1  UNL1       -0.1908
     36 C         142.6787  140.9158  168.9513 C.1     1  UNL1        0.1005
@<TRIPOS>BOND
     1    35    36    3
     2    36    24    1
     3    24    25   ar
     4    25    26   ar
     5    26    27   ar
     6    27    28   ar
     7    28    29   ar
     8    28    30    1
     9    30    23    1
    10    23    22    1
    11    22     1    1
    12     1     2    1
    13     2     3    1
    14     3     4    1
    15     4     7    1
    16     7     9    1
    17     9    10    1
    18    10    11   ar
    19    11    12   ar
    20    12    13   ar
    21    13    14   ar
    22    14    15   ar
    23    14    16    1
    24    16    17   am
    25    17    18    2
    26    17    19    1
    27    19    20    1
    28     4     5    1
    29     5     6    1
    30    30    31   am
    31    31    32    2
    32    31    33    1
    33    33    34    1
    34    29    24   ar
    35     6     1    1
    36    34    27    1
    37    15    10   ar
    38    20    13    1
    39     7     8    1
    40    16    21    1
@<TRIPOS>MOLECULE
*****
 36 40 0 0 0
SMALL
GASTEIGER

@<TRIPOS>ATOM
      1 N         141.8011  138.2721  164.0027 N.3     1  UNL1       -0.2711
      2 C         142.1146  138.5635  162.5651 C.3     1  UNL1        0.0735
      3 C         143.3569  139.3242  162.2077 C.3     1  UNL1        0.0331
      4 C         144.2857  139.7936  163.2879 C.3     1  UNL1        0.0570
      5 C         143.9722  139.5022  164.7255 C.3     1  UNL1        0.0331
      6 C         142.7299  138.7414  165.0830 C.3     1  UNL1        0.0735
      7 N         145.5281  140.5544  162.9305 N.3     1  UNL1       -0.2934
      8 H         145.6306  140.4919  161.9176 H       1  UNL1        0.1236
      9 C         145.6479  142.0060  163.2891 C.3     1  UNL1        0.1152
     10 C         144.4612  142.9130  163.1510 C.ar    1  UNL1        0.0765
     11 C         143.8790  143.5761  164.3640 C.ar    1  UNL1        0.0193
     12 C         142.6922  144.4832  164.2259 C.ar    1  UNL1        0.0411
     13 C         142.0878  144.7271  162.8750 C.ar    1  UNL1        0.1708
     14 C         142.6701  144.0639  161.6620 C.ar    1  UNL1        0.1682
     15 N         143.8567  143.1569  161.8000 N.ar    1  UNL1       -0.2304
     16 N         142.0656  144.3078  160.3110 N.am    1  UNL1       -0.2639
     17 C         140.8789  145.2148  160.1730 C.2     1  UNL1        0.2718
     18 O         140.2744  145.4587  158.8220 O.2     1  UNL1       -0.2707
     19 C         140.2966  145.8779  161.3859 C.3     1  UNL1        0.2898
     20 O         140.9011  145.6340  162.7369 O.3     1  UNL1       -0.4628
     21 H         142.4478  143.8725  159.5149 H       1  UNL1        0.1565
     22 C         140.5587  137.5112  164.3601 C.3     1  UNL1        0.0942
     23 C         139.3259  138.2486  164.7920 C.3     1  UNL1        0.1157
     24 C         140.0287  142.3739  166.4466 C.ar    1  UNL1        0.0699
     25 C         139.5678  143.5780  165.6800 C.ar    1  UNL1        0.0135
     26 C         138.8725  143.4070  164.3619 C.ar    1  UNL1        0.0389
     27 C         138.6382  142.0319  163.8104 C.ar    1  UNL1        0.1528
     28 C         139.0992  140.8278  164.5770 C.ar    1  UNL1        0.0888
     29 C         139.7944  140.9988  165.8951 C.ar    1  UNL1        0.0283
     30 N         138.8649  139.4527  164.0254 N.am    1  UNL1       -0.2515
     31 C         138.1697  139.2817  162.7073 C.2     1  UNL1        0.2740
     32 O         137.9354  137.9066  162.1558 O.2     1  UNL1       -0.2705
     33 C         137.7087  140.4858  161.9407 C.3     1  UNL1        0.2900
     34 O         137.9430  141.8609  162.4923 O.3     1  UNL1       -0.4643
     35 N         141.4192  142.7159  169.0828 N.1     1  UNL1       -0.1908
     36 C         140.7239  142.5449  167.7647 C.1     1  UNL1        0.1005
@<TRIPOS>BOND
     1    35    36    3
     2    36    24    1
     3    24    25   ar
     4    25    26   ar
     5    26    27   ar
     6    27    28   ar
     7    28    29   ar
     8    28    30    1
     9    30    23    1
    10    23    22    1
    11    22     1    1
    12     1     2    1
    13     2     3    1
    14     3     4    1
    15     4     7    1
    16     7     9    1
    17     9    10    1
    18    10    11   ar
    19    11    12   ar
    20    12    13   ar
    21    13    14   ar
    22    14    15   ar
    23    14    16    1
    24    16    17   am
    25    17    18    2
    26    17    19    1
    27    19    20    1
    28     4     5    1
    29     5     6    1
    30    30    31   am
    31    31    32    2
    32    31    33    1
    33    33    34    1
    34    29    24   ar
    35     6     1    1
    36    34    27    1
    37    15    10   ar
    38    20    13    1
    39     7     8    1
    40    16    21    1
@<TRIPOS>MOLECULE
*****
 36 40 0 0 0
SMALL
GASTEIGER

@<TRIPOS>ATOM
      1 N         143.3921  142.0797  164.0292 N.3     1  UNL1       -0.2711
      2 C         143.6158  142.7069  162.6851 C.3     1  UNL1        0.0735
      3 C         142.9079  143.9790  162.3240 C.3     1  UNL1        0.0331
      4 C         141.9763  144.6240  163.3069 C.3     1  UNL1        0.0570
      5 C         141.7526  143.9967  164.6510 C.3     1  UNL1        0.0331
      6 C         142.4605  142.7246  165.0121 C.3     1  UNL1        0.0735
      7 N         141.2683  145.8962  162.9458 N.3     1  UNL1       -0.2934
      8 H         141.8440  146.3652  162.2464 H       1  UNL1        0.1236
      9 C         139.8732  145.8483  162.3969 C.3     1  UNL1        0.1152
     10 C         139.1914  144.5275  162.1956 C.ar    1  UNL1        0.0765
     11 C         138.3101  143.9667  163.2721 C.ar    1  UNL1        0.0193
     12 C         137.6282  142.6458  163.0708 C.ar    1  UNL1        0.0411
     13 C         137.8276  141.8858  161.7931 C.ar    1  UNL1        0.1708
     14 C         138.7089  142.4467  160.7166 C.ar    1  UNL1        0.1682
     15 N         139.3908  143.7675  160.9179 N.ar    1  UNL1       -0.2304
     16 N         138.9084  141.6867  159.4388 N.am    1  UNL1       -0.2639
     17 C         138.2265  140.3658  159.2376 C.2     1  UNL1        0.2718
     18 O         138.4259  139.6058  157.9599 O.2     1  UNL1       -0.2707
     19 C         137.3452  139.8051  160.3141 C.3     1  UNL1        0.2898
     20 O         137.1458  140.5651  161.5918 O.3     1  UNL1       -0.4628
     21 H         139.4868  142.0548  158.7323 H       1  UNL1        0.1565
     22 C         144.1001  140.8074  164.3903 C.3     1  UNL1        0.0942
     23 C         143.4146  139.7851  165.2476 C.3     1  UNL1        0.1157
     24 C         139.5600  139.7789  167.5696 C.ar    1  UNL1        0.0699
     25 C         138.3684  139.0357  167.0429 C.ar    1  UNL1        0.0135
     26 C         138.4615  138.2945  165.7421 C.ar    1  UNL1        0.0389
     27 C         139.7464  138.2966  164.9681 C.ar    1  UNL1        0.1528
     28 C         140.9380  139.0398  165.4949 C.ar    1  UNL1        0.0888
     29 C         140.8449  139.7810  166.7956 C.ar    1  UNL1        0.0283
     30 N         142.2230  139.0419  164.7209 N.am    1  UNL1       -0.2515
     31 C         142.3162  138.3007  163.4201 C.2     1  UNL1        0.2740
     32 O         143.6010  138.3028  162.6461 O.2     1  UNL1       -0.2705
     33 C         141.1244  137.5575  162.8934 C.3     1  UNL1        0.2900
     34 O         139.8396  137.5554  163.6674 O.3     1  UNL1       -0.4643
     35 N         139.3736  141.2613  170.1712 N.1     1  UNL1       -0.1908
     36 C         139.4668  140.5201  168.8704 C.1     1  UNL1        0.1005
@<TRIPOS>BOND
     1    35    36    3
     2    36    24    1
     3    24    25   ar
     4    25    26   ar
     5    26    27   ar
     6    27    28   ar
     7    28    29   ar
     8    28    30    1
     9    30    23    1
    10    23    22    1
    11    22     1    1
    12     1     2    1
    13     2     3    1
    14     3     4    1
    15     4     7    1
    16     7     9    1
    17     9    10    1
    18    10    11   ar
    19    11    12   ar
    20    12    13   ar
    21    13    14   ar
    22    14    15   ar
    23    14    16    1
    24    16    17   am
    25    17    18    2
    26    17    19    1
    27    19    20    1
    28     4     5    1
    29     5     6    1
    30    30    31   am
    31    31    32    2
    32    31    33    1
    33    33    34    1
    34    29    24   ar
    35     6     1    1
    36    34    27    1
    37    15    10   ar
    38    20    13    1
    39     7     8    1
    40    16    21    1
@<TRIPOS>MOLECULE
*****
 36 40 0 0 0
SMALL
GASTEIGER

@<TRIPOS>ATOM
      1 N         138.8974  139.5131  161.2216 N.3     1  UNL1       -0.2711
      2 C         139.9382  139.8592  160.1983 C.3     1  UNL1        0.0735
      3 C         141.2348  139.1060  160.1630 C.3     1  UNL1        0.0331
      4 C         141.4907  138.0067  161.1509 C.3     1  UNL1        0.0570
      5 C         140.4499  137.6606  162.1741 C.3     1  UNL1        0.0331
      6 C         139.1532  138.4138  162.2094 C.3     1  UNL1        0.0735
      7 N         142.7874  137.2534  161.1156 N.3     1  UNL1       -0.2934
      8 H         142.8944  136.8957  160.1664 H       1  UNL1        0.1236
      9 C         144.0694  137.9505  161.4628 C.3     1  UNL1        0.1152
     10 C         144.0610  139.0993  162.4272 C.ar    1  UNL1        0.0765
     11 C         143.9817  138.8396  163.9023 C.ar    1  UNL1        0.0193
     12 C         143.9734  139.9885  164.8668 C.ar    1  UNL1        0.0411
     13 C         144.0444  141.3970  164.3560 C.ar    1  UNL1        0.1708
     14 C         144.1237  141.6567  162.8807 C.ar    1  UNL1        0.1682
     15 N         144.1320  140.5079  161.9163 N.ar    1  UNL1       -0.2304
     16 N         144.1947  143.0653  162.3699 N.am    1  UNL1       -0.2639
     17 C         144.1864  144.2141  163.3343 C.2     1  UNL1        0.2718
     18 O         144.2573  145.6227  162.8235 O.2     1  UNL1       -0.2707
     19 C         144.1070  143.9544  164.8095 C.3     1  UNL1        0.2898
     20 O         144.0360  142.5459  165.3203 O.3     1  UNL1       -0.4628
     21 H         144.2468  143.2357  161.4016 H       1  UNL1        0.1565
     22 C         137.6007  140.2664  161.2568 C.3     1  UNL1        0.0942
     23 C         137.3936  141.3561  162.2667 C.3     1  UNL1        0.1157
     24 C         138.5524  139.7749  166.3172 C.ar    1  UNL1        0.0699
     25 C         139.7285  140.3591  167.0420 C.ar    1  UNL1        0.0135
     26 C         140.5184  141.4705  166.4166 C.ar    1  UNL1        0.0389
     27 C         140.1321  141.9975  165.0665 C.ar    1  UNL1        0.1528
     28 C         138.9560  141.4133  164.3417 C.ar    1  UNL1        0.0888
     29 C         138.1661  140.3020  164.9671 C.ar    1  UNL1        0.0283
     30 N         138.5697  141.9403  162.9915 N.am    1  UNL1       -0.2515
     31 C         139.3596  143.0517  162.3661 C.2     1  UNL1        0.2740
     32 O         138.9733  143.5787  161.0159 O.2     1  UNL1       -0.2705
     33 C         140.5357  143.6359  163.0910 C.3     1  UNL1        0.2900
     34 O         140.9220  143.1088  164.4411 O.3     1  UNL1       -0.4643
     35 N         136.9727  137.5523  167.5680 N.1     1  UNL1       -0.1908
     36 C         137.7625  138.6636  166.9426 C.1     1  UNL1        0.1005
@<TRIPOS>BOND
     1    35    36    3
     2    36    24    1
     3    24    25   ar
     4    25    26   ar
     5    26    27   ar
     6    27    28   ar
     7    28    29   ar
     8    28    30    1
     9    30    23    1
    10    23    22    1
    11    22     1    1
    12     1     2    1
    13     2     3    1
    14     3     4    1
    15     4     7    1
    16     7     9    1
    17     9    10    1
    18    10    11   ar
    19    11    12   ar
    20    12    13   ar
    21    13    14   ar
    22    14    15   ar
    23    14    16    1
    24    16    17   am
    25    17    18    2
    26    17    19    1
    27    19    20    1
    28     4     5    1
    29     5     6    1
    30    30    31   am
    31    31    32    2
    32    31    33    1
    33    33    34    1
    34    29    24   ar
    35     6     1    1
    36    34    27    1
    37    15    10   ar
    38    20    13    1
    39     7     8    1
    40    16    21    1
@<TRIPOS>MOLECULE
*****
 36 40 0 0 0
SMALL
GASTEIGER

@<TRIPOS>ATOM
      1 N         138.3004  140.2825  163.7274 N.3     1  UNL1       -0.2711
      2 C         138.1570  141.3503  164.7711 C.3     1  UNL1        0.0735
      3 C         137.9610  142.7794  164.3599 C.3     1  UNL1        0.0331
      4 C         137.9085  143.1407  162.9051 C.3     1  UNL1        0.0570
      5 C         138.0519  142.0729  161.8614 C.3     1  UNL1        0.0331
      6 C         138.2479  140.6438  162.2726 C.3     1  UNL1        0.0735
      7 N         137.7125  144.5699  162.4938 N.3     1  UNL1       -0.2934
      8 H         137.0260  144.9691  163.1340 H       1  UNL1        0.1236
      9 C         138.8807  145.5105  162.4701 C.3     1  UNL1        0.1152
     10 C         140.2786  144.9690  162.4180 C.ar    1  UNL1        0.0765
     11 C         141.1748  145.0900  163.6147 C.ar    1  UNL1        0.0193
     12 C         142.5727  144.5486  163.5626 C.ar    1  UNL1        0.0411
     13 C         143.0744  143.8861  162.3138 C.ar    1  UNL1        0.1708
     14 C         142.1780  143.7651  161.1170 C.ar    1  UNL1        0.1682
     15 N         140.7802  144.3066  161.1692 N.ar    1  UNL1       -0.2304
     16 N         142.6797  143.1027  159.8682 N.am    1  UNL1       -0.2639
     17 C         144.0776  142.5612  159.8161 C.2     1  UNL1        0.2718
     18 O         144.5792  141.8987  158.5673 O.2     1  UNL1       -0.2707
     19 C         144.9738  142.6822  161.0128 C.3     1  UNL1        0.2898
     20 O         144.4722  143.3446  162.2616 O.3     1  UNL1       -0.4628
     21 H         142.0914  143.0232  159.0828 H       1  UNL1        0.1565
     22 C         138.4965  138.8533  164.1387 C.3     1  UNL1        0.0942
     23 C         139.7254  138.4538  164.9004 C.3     1  UNL1        0.1157
     24 C         141.8206  141.8665  166.9532 C.ar    1  UNL1        0.0699
     25 C         143.1733  142.3095  166.4801 C.ar    1  UNL1        0.0135
     26 C         143.8276  141.6150  165.3227 C.ar    1  UNL1        0.0389
     27 C         143.1292  140.4774  164.6384 C.ar    1  UNL1        0.1528
     28 C         141.7765  140.0344  165.1116 C.ar    1  UNL1        0.0888
     29 C         141.1222  140.7289  166.2690 C.ar    1  UNL1        0.0283
     30 N         141.0781  138.8969  164.4273 N.am    1  UNL1       -0.2515
     31 C         141.7324  138.2024  163.2699 C.2     1  UNL1        0.2740
     32 O         141.0340  137.0648  162.5857 O.2     1  UNL1       -0.2705
     33 C         143.0851  138.6454  162.7968 C.3     1  UNL1        0.2900
     34 O         143.7835  139.7829  163.4811 O.3     1  UNL1       -0.4643
     35 N         140.5120  143.2555  169.2680 N.1     1  UNL1       -0.1908
     36 C         141.1663  142.5610  168.1106 C.1     1  UNL1        0.1005
@<TRIPOS>BOND
     1    35    36    3
     2    36    24    1
     3    24    25   ar
     4    25    26   ar
     5    26    27   ar
     6    27    28   ar
     7    28    29   ar
     8    28    30    1
     9    30    23    1
    10    23    22    1
    11    22     1    1
    12     1     2    1
    13     2     3    1
    14     3     4    1
    15     4     7    1
    16     7     9    1
    17     9    10    1
    18    10    11   ar
    19    11    12   ar
    20    12    13   ar
    21    13    14   ar
    22    14    15   ar
    23    14    16    1
    24    16    17   am
    25    17    18    2
    26    17    19    1
    27    19    20    1
    28     4     5    1
    29     5     6    1
    30    30    31   am
    31    31    32    2
    32    31    33    1
    33    33    34    1
    34    29    24   ar
    35     6     1    1
    36    34    27    1
    37    15    10   ar
    38    20    13    1
    39     7     8    1
    40    16    21    1
@<TRIPOS>MOLECULE
*****
 36 40 0 0 0
SMALL
GASTEIGER

@<TRIPOS>ATOM
      1 N         144.2014  139.6336  163.7774 N.3     1  UNL1       -0.2711
      2 C         143.8765  139.2239  162.3714 C.3     1  UNL1        0.0735
      3 C         142.6735  138.3708  162.0979 C.3     1  UNL1        0.0331
      4 C         141.7954  137.9272  163.2302 C.3     1  UNL1        0.0570
      5 C         142.1204  138.3369  164.6361 C.3     1  UNL1        0.0331
      6 C         143.3233  139.1901  164.9097 C.3     1  UNL1        0.0735
      7 N         140.5924  137.0740  162.9567 N.3     1  UNL1       -0.2934
      8 H         140.7430  136.1888  163.4405 H       1  UNL1        0.1236
      9 C         139.2269  137.5551  163.3491 C.3     1  UNL1        0.1152
     10 C         138.8033  138.9567  163.0237 C.ar    1  UNL1        0.0765
     11 C         138.1771  139.2616  161.6952 C.ar    1  UNL1        0.0193
     12 C         137.7534  140.6633  161.3698 C.ar    1  UNL1        0.0411
     13 C         137.9560  141.7601  162.3729 C.ar    1  UNL1        0.1708
     14 C         138.5823  141.4551  163.7014 C.ar    1  UNL1        0.1682
     15 N         139.0059  140.0534  164.0268 N.ar    1  UNL1       -0.2304
     16 N         138.7849  142.5518  164.7044 N.am    1  UNL1       -0.2639
     17 C         138.3613  143.9535  164.3790 C.2     1  UNL1        0.2718
     18 O         138.5639  145.0502  165.3820 O.2     1  UNL1       -0.2707
     19 C         137.7351  144.2584  163.0505 C.3     1  UNL1        0.2898
     20 O         137.5324  143.1617  162.0475 O.3     1  UNL1       -0.4628
     21 H         139.1959  142.3517  165.5764 H       1  UNL1        0.1565
     22 C         145.4045  140.4868  164.0509 C.3     1  UNL1        0.0942
     23 C         145.4628  141.8911  163.5269 C.3     1  UNL1        0.1157
     24 C         144.0296  142.7448  159.3475 C.ar    1  UNL1        0.0699
     25 C         142.7626  143.5183  159.1325 C.ar    1  UNL1        0.0135
     26 C         141.9733  144.0073  160.3106 C.ar    1  UNL1        0.0389
     27 C         142.4510  143.7227  161.7037 C.ar    1  UNL1        0.1528
     28 C         143.7180  142.9492  161.9187 C.ar    1  UNL1        0.0888
     29 C         144.5073  142.4602  160.7406 C.ar    1  UNL1        0.0283
     30 N         144.1958  142.6646  163.3119 N.am    1  UNL1       -0.2515
     31 C         143.4064  143.1536  164.4900 C.2     1  UNL1        0.2740
     32 O         143.8841  142.8690  165.8831 O.2     1  UNL1       -0.2705
     33 C         142.1394  143.9271  164.2749 C.3     1  UNL1        0.2900
     34 O         141.6617  144.2117  162.8818 O.3     1  UNL1       -0.4643
     35 N         145.6083  141.7669  156.9914 N.1     1  UNL1       -0.1908
     36 C         144.8189  142.2558  158.1694 C.1     1  UNL1        0.1005
@<TRIPOS>BOND
     1    35    36    3
     2    36    24    1
     3    24    25   ar
     4    25    26   ar
     5    26    27   ar
     6    27    28   ar
     7    28    29   ar
     8    28    30    1
     9    30    23    1
    10    23    22    1
    11    22     1    1
    12     1     2    1
    13     2     3    1
    14     3     4    1
    15     4     7    1
    16     7     9    1
    17     9    10    1
    18    10    11   ar
    19    11    12   ar
    20    12    13   ar
    21    13    14   ar
    22    14    15   ar
    23    14    16    1
    24    16    17   am
    25    17    18    2
    26    17    19    1
    27    19    20    1
    28     4     5    1
    29     5     6    1
    30    30    31   am
    31    31    32    2
    32    31    33    1
    33    33    34    1
    34    29    24   ar
    35     6     1    1
    36    34    27    1
    37    15    10   ar
    38    20    13    1
    39     7     8    1
    40    16    21    1
@<TRIPOS>MOLECULE
*****
 36 40 0 0 0
SMALL
GASTEIGER

@<TRIPOS>ATOM
      1 N         142.8361  138.6369  163.1541 N.3     1  UNL1       -0.2711
      2 C         142.6764  138.9383  161.6934 C.3     1  UNL1        0.0735
      3 C         141.3505  138.7274  161.0247 C.3     1  UNL1        0.0331
      4 C         140.1842  138.2150  161.8166 C.3     1  UNL1        0.0570
      5 C         140.3439  137.9136  163.2773 C.3     1  UNL1        0.0331
      6 C         141.6699  138.1245  163.9461 C.3     1  UNL1        0.0735
      7 N         138.8582  138.0040  161.1479 N.3     1  UNL1       -0.2934
      8 H         138.5214  137.0879  161.4441 H       1  UNL1        0.1236
      9 C         137.7377  138.9736  161.3815 C.3     1  UNL1        0.1152
     10 C         138.0374  140.4258  161.6074 C.ar    1  UNL1        0.0765
     11 C         137.3648  141.1652  162.7258 C.ar    1  UNL1        0.0193
     12 C         137.6645  142.6176  162.9518 C.ar    1  UNL1        0.0411
     13 C         138.6369  143.3304  162.0594 C.ar    1  UNL1        0.1708
     14 C         139.3095  142.5909  160.9410 C.ar    1  UNL1        0.1682
     15 N         139.0098  141.1387  160.7150 N.ar    1  UNL1       -0.2304
     16 N         140.2819  143.3037  160.0486 N.am    1  UNL1       -0.2639
     17 C         140.5816  144.7561  160.2746 C.2     1  UNL1        0.2718
     18 O         141.5540  145.4689  159.3822 O.2     1  UNL1       -0.2707
     19 C         139.9090  145.4955  161.3930 C.3     1  UNL1        0.2898
     20 O         138.9366  144.7826  162.2854 O.3     1  UNL1       -0.4628
     21 H         140.7234  142.8184  159.3146 H       1  UNL1        0.1565
     22 C         144.1622  138.8479  163.8229 C.3     1  UNL1        0.0942
     23 C         144.4184  140.1046  164.6007 C.3     1  UNL1        0.1157
     24 C         140.6550  141.5212  166.6207 C.ar    1  UNL1        0.0699
     25 C         140.0153  142.8097  166.1960 C.ar    1  UNL1        0.0135
     26 C         140.6300  143.6260  165.0979 C.ar    1  UNL1        0.0389
     27 C         141.8844  143.1538  164.4245 C.ar    1  UNL1        0.1528
     28 C         142.5241  141.8653  164.8493 C.ar    1  UNL1        0.0888
     29 C         141.9095  141.0490  165.9474 C.ar    1  UNL1        0.0283
     30 N         143.7786  141.3931  164.1759 N.am    1  UNL1       -0.2515
     31 C         144.3933  142.2094  163.0778 C.2     1  UNL1        0.2740
     32 O         145.6477  141.7372  162.4045 O.2     1  UNL1       -0.2705
     33 C         143.7535  143.4979  162.6531 C.3     1  UNL1        0.2900
     34 O         142.4991  143.9701  163.3264 O.3     1  UNL1       -0.4643
     35 N         139.4257  139.8887  168.8169 N.1     1  UNL1       -0.1908
     36 C         140.0404  140.7050  167.7188 C.1     1  UNL1        0.1005
@<TRIPOS>BOND
     1    35    36    3
     2    36    24    1
     3    24    25   ar
     4    25    26   ar
     5    26    27   ar
     6    27    28   ar
     7    28    29   ar
     8    28    30    1
     9    30    23    1
    10    23    22    1
    11    22     1    1
    12     1     2    1
    13     2     3    1
    14     3     4    1
    15     4     7    1
    16     7     9    1
    17     9    10    1
    18    10    11   ar
    19    11    12   ar
    20    12    13   ar
    21    13    14   ar
    22    14    15   ar
    23    14    16    1
    24    16    17   am
    25    17    18    2
    26    17    19    1
    27    19    20    1
    28     4     5    1
    29     5     6    1
    30    30    31   am
    31    31    32    2
    32    31    33    1
    33    33    34    1
    34    29    24   ar
    35     6     1    1
    36    34    27    1
    37    15    10   ar
    38    20    13    1
    39     7     8    1
    40    16    21    1
@<TRIPOS>MOLECULE
*****
 36 40 0 0 0
SMALL
GASTEIGER

@<TRIPOS>ATOM
      1 N         141.6259  138.8330  160.6763 N.3     1  UNL1       -0.2711
      2 C         142.7547  139.4014  159.8685 C.3     1  UNL1        0.0735
      3 C         143.9662  139.9550  160.5583 C.3     1  UNL1        0.0331
      4 C         144.0489  139.9402  162.0559 C.3     1  UNL1        0.0570
      5 C         142.9200  139.3718  162.8637 C.3     1  UNL1        0.0331
      6 C         141.7085  138.8182  162.1740 C.3     1  UNL1        0.0735
      7 N         145.2604  140.4938  162.7457 N.3     1  UNL1       -0.2934
      8 H         146.0717  140.1791  162.2136 H       1  UNL1        0.1236
      9 C         145.4091  141.9754  162.9263 C.3     1  UNL1        0.1152
     10 C         144.1942  142.8551  162.9387 C.ar    1  UNL1        0.0765
     11 C         143.5970  143.2908  164.2439 C.ar    1  UNL1        0.0193
     12 C         142.3821  144.1705  164.2563 C.ar    1  UNL1        0.0411
     13 C         141.7645  144.6146  162.9636 C.ar    1  UNL1        0.1708
     14 C         142.3617  144.1789  161.6583 C.ar    1  UNL1        0.1682
     15 N         143.5766  143.2992  161.6459 N.ar    1  UNL1       -0.2304
     16 N         141.7441  144.6230  160.3656 N.am    1  UNL1       -0.2639
     17 C         140.5291  145.5028  160.3780 C.2     1  UNL1        0.2718
     18 O         139.9115  145.9469  159.0852 O.2     1  UNL1       -0.2707
     19 C         139.9320  145.9384  161.6832 C.3     1  UNL1        0.2898
     20 O         140.5496  145.4943  162.9760 O.3     1  UNL1       -0.4628
     21 H         142.1360  144.3371  159.5089 H       1  UNL1        0.1565
     22 C         140.4144  138.2794  159.9865 C.3     1  UNL1        0.0942
     23 C         139.0451  138.7378  160.3926 C.3     1  UNL1        0.1157
     24 C         138.1434  140.6110  164.3836 C.ar    1  UNL1        0.0699
     25 C         137.8390  142.0771  164.4723 C.ar    1  UNL1        0.0135
     26 C         137.8351  142.9188  163.2307 C.ar    1  UNL1        0.0389
     27 C         138.1356  142.2944  161.9004 C.ar    1  UNL1        0.1528
     28 C         138.4401  140.8283  161.8117 C.ar    1  UNL1        0.0888
     29 C         138.4440  139.9866  163.0532 C.ar    1  UNL1        0.0283
     30 N         138.7407  140.2039  160.4813 N.am    1  UNL1       -0.2515
     31 C         138.7368  141.0456  159.2397 C.2     1  UNL1        0.2740
     32 O         139.0373  140.4212  157.9094 O.2     1  UNL1       -0.2705
     33 C         138.4323  142.5117  159.3285 C.3     1  UNL1        0.2900
     34 O         138.1317  143.1361  160.6588 O.3     1  UNL1       -0.4643
     35 N         138.1512  138.9276  166.8667 N.1     1  UNL1       -0.1908
     36 C         138.1473  139.7693  165.6251 C.1     1  UNL1        0.1005
@<TRIPOS>BOND
     1    35    36    3
     2    36    24    1
     3    24    25   ar
     4    25    26   ar
     5    26    27   ar
     6    27    28   ar
     7    28    29   ar
     8    28    30    1
     9    30    23    1
    10    23    22    1
    11    22     1    1
    12     1     2    1
    13     2     3    1
    14     3     4    1
    15     4     7    1
    16     7     9    1
    17     9    10    1
    18    10    11   ar
    19    11    12   ar
    20    12    13   ar
    21    13    14   ar
    22    14    15   ar
    23    14    16    1
    24    16    17   am
    25    17    18    2
    26    17    19    1
    27    19    20    1
    28     4     5    1
    29     5     6    1
    30    30    31   am
    31    31    32    2
    32    31    33    1
    33    33    34    1
    34    29    24   ar
    35     6     1    1
    36    34    27    1
    37    15    10   ar
    38    20    13    1
    39     7     8    1
    40    16    21    1
