@<TRIPOS>MOLECULE
*****
 36 41 0 0 0
SMALL
GASTEIGER

@<TRIPOS>ATOM
      1 C         138.6541  142.4643  158.4216 C.ar    1  UNL1        0.0520
      2 C         137.9206  142.0907  157.1677 C.ar    1  UNL1        0.0147
      3 C         138.0806  142.9219  155.9293 C.ar    1  UNL1        0.0013
      4 C         138.9741  144.1267  155.9449 C.ar    1  UNL1        0.0001
      5 C         139.7077  144.5002  157.1989 C.ar    1  UNL1        0.0028
      6 C         139.5476  143.6690  158.4373 C.ar    1  UNL1        0.0327
      7 C         140.2811  144.0425  159.6912 C.ar    1  UNL1        0.1021
      8 C         141.6704  143.6141  160.0609 C.ar    1  UNL1        0.1008
      9 N         142.0020  144.2169  161.3938 N.ar    1  UNL1       -0.2856
     10 C         143.0656  144.3246  162.4460 C.ar    1  UNL1        0.0660
     11 C         142.5387  145.1921  163.5505 C.ar    1  UNL1        0.0528
     12 S         141.1495  145.6205  163.1808 S.2     1  UNL1       -0.0483
     13 C         140.8178  145.0178  161.8480 C.ar    1  UNL1        0.1792
     14 N         139.7543  144.9100  160.7957 N.ar    1  UNL1       -0.2205
     15 C         144.4185  143.6783  162.4017 C.3     1  UNL1        0.1176
     16 N         144.5505  142.1992  162.6130 N.3     1  UNL1       -0.2653
     17 C         145.1107  141.6727  163.9010 C.3     1  UNL1        0.0897
     18 C         145.2427  140.1935  164.1123 C.3     1  UNL1        0.0862
     19 N         144.8145  139.2409  163.0357 N.3     1  UNL1       -0.2951
     20 C         144.2543  139.7674  161.7477 C.3     1  UNL1        0.0862
     21 C         144.1222  141.2466  161.5364 C.3     1  UNL1        0.0897
     22 H         144.0997  138.6381  163.4432 H       1  UNL1        0.1233
     23 O         140.6889  140.3641  159.0918 O.2     1  UNL1       -0.2681
     24 C         139.5116  140.5830  159.9951 C.2     1  UNL1        0.2688
     25 N         138.4941  141.6331  159.6600 N.am    1  UNL1       -0.2791
     26 H         137.7214  141.7768  160.2528 H       1  UNL1        0.1552
     27 C         139.3516  139.7518  161.2334 C.ar    1  UNL1        0.1538
     28 C         139.7113  138.2957  161.2111 C.ar    1  UNL1        0.1225
     29 N         139.5513  137.4646  162.4494 N.ar    1  UNL1       -0.2406
     30 C         139.0316  138.0894  163.7101 C.ar    1  UNL1        0.0989
     31 C         138.8716  137.2583  164.9485 C.ar    1  UNL1        0.0206
     32 C         138.3520  137.8831  166.2092 C.ar    1  UNL1        0.0016
     33 C         137.9923  139.3392  166.2317 C.ar    1  UNL1        0.0016
     34 C         138.1523  140.1703  164.9933 C.ar    1  UNL1        0.0206
     35 C         138.6720  139.5455  163.7326 C.ar    1  UNL1        0.0991
     36 N         138.8319  140.3767  162.4942 N.ar    1  UNL1       -0.2377
@<TRIPOS>BOND
     1    23    24    2
     2    24    25   am
     3    25     1    1
     4     1     2   ar
     5     2     3   ar
     6     3     4   ar
     7     4     5   ar
     8     5     6   ar
     9     6     7    1
    10     7     8   ar
    11     8     9   ar
    12     9    10   ar
    13    10    15    1
    14    15    16    1
    15    16    17    1
    16    17    18    1
    17    18    19    1
    18    19    20    1
    19    20    21    1
    20    10    11   ar
    21    11    12   ar
    22    12    13   ar
    23    13    14   ar
    24    24    27    1
    25    27    28   ar
    26    28    29   ar
    27    29    30   ar
    28    30    31   ar
    29    31    32   ar
    30    32    33   ar
    31    33    34   ar
    32    34    35   ar
    33    35    36   ar
    34     6     1   ar
    35    14     7   ar
    36    36    27   ar
    37    13     9   ar
    38    35    30   ar
    39    21    16    1
    40    25    26    1
    41    19    22    1
@<TRIPOS>MOLECULE
*****
 36 41 0 0 0
SMALL
GASTEIGER

@<TRIPOS>ATOM
      1 C         140.4272  142.2202  167.7135 C.ar    1  UNL1        0.0520
      2 C         140.3978  143.0380  168.9706 C.ar    1  UNL1        0.0147
      3 C         140.6990  142.3941  170.2914 C.ar    1  UNL1        0.0013
      4 C         141.0296  140.9323  170.3552 C.ar    1  UNL1        0.0001
      5 C         141.0590  140.1145  169.0981 C.ar    1  UNL1        0.0028
      6 C         140.7578  140.7585  167.7772 C.ar    1  UNL1        0.0327
      7 C         140.7872  139.9407  166.5201 C.ar    1  UNL1        0.1021
      8 C         141.9803  139.7234  165.6372 C.ar    1  UNL1        0.1008
      9 N         141.5591  138.8450  164.4966 N.ar    1  UNL1       -0.2856
     10 C         142.0362  138.1679  163.2461 C.ar    1  UNL1        0.0660
     11 C         140.8776  137.4237  162.6511 C.ar    1  UNL1        0.0528
     12 S         139.6846  137.6409  163.5340 S.2     1  UNL1       -0.0483
     13 C         140.1057  138.5193  164.6745 C.ar    1  UNL1        0.1792
     14 N         139.6287  139.1965  165.9251 N.ar    1  UNL1       -0.2205
     15 C         143.4275  138.2249  162.6884 C.3     1  UNL1        0.1176
     16 N         144.1751  139.5251  162.6688 N.3     1  UNL1       -0.2653
     17 C         144.0823  140.4256  161.4727 C.3     1  UNL1        0.0897
     18 C         144.8299  141.7258  161.4531 C.3     1  UNL1        0.0862
     19 N         145.6702  142.1256  162.6294 N.3     1  UNL1       -0.2951
     20 C         145.7631  141.2252  163.8255 C.3     1  UNL1        0.0862
     21 C         145.0155  139.9249  163.8452 C.3     1  UNL1        0.0897
     22 H         145.3066  143.0191  162.9609 H       1  UNL1        0.1233
     23 O         142.6631  142.9057  165.8344 O.2     1  UNL1       -0.2681
     24 C         141.2439  143.2068  165.4530 C.2     1  UNL1        0.2688
     25 N         140.1260  142.8640  166.3926 N.am    1  UNL1       -0.2791
     26 H         139.1946  143.0617  166.1424 H       1  UNL1        0.1552
     27 C         140.9427  143.8507  164.1322 C.ar    1  UNL1        0.1538
     28 C         139.8594  144.8833  164.0309 C.ar    1  UNL1        0.1225
     29 N         139.5582  145.5272  162.7100 N.ar    1  UNL1       -0.2406
     30 C         140.3403  145.1386  161.4905 C.ar    1  UNL1        0.0989
     31 C         140.0391  145.7824  160.1697 C.ar    1  UNL1        0.0206
     32 C         140.8212  145.3938  158.9501 C.ar    1  UNL1        0.0016
     33 C         141.9045  144.3613  159.0514 C.ar    1  UNL1        0.0016
     34 C         142.2057  143.7174  160.3722 C.ar    1  UNL1        0.0206
     35 C         141.4236  144.1060  161.5918 C.ar    1  UNL1        0.0991
     36 N         141.7248  143.4621  162.9127 N.ar    1  UNL1       -0.2377
@<TRIPOS>BOND
     1    23    24    2
     2    24    25   am
     3    25     1    1
     4     1     2   ar
     5     2     3   ar
     6     3     4   ar
     7     4     5   ar
     8     5     6   ar
     9     6     7    1
    10     7     8   ar
    11     8     9   ar
    12     9    10   ar
    13    10    15    1
    14    15    16    1
    15    16    17    1
    16    17    18    1
    17    18    19    1
    18    19    20    1
    19    20    21    1
    20    10    11   ar
    21    11    12   ar
    22    12    13   ar
    23    13    14   ar
    24    24    27    1
    25    27    28   ar
    26    28    29   ar
    27    29    30   ar
    28    30    31   ar
    29    31    32   ar
    30    32    33   ar
    31    33    34   ar
    32    34    35   ar
    33    35    36   ar
    34     6     1   ar
    35    14     7   ar
    36    36    27   ar
    37    13     9   ar
    38    35    30   ar
    39    21    16    1
    40    25    26    1
    41    19    22    1
@<TRIPOS>MOLECULE
*****
 36 41 0 0 0
SMALL
GASTEIGER

@<TRIPOS>ATOM
      1 C         139.0647  138.7821  164.1386 C.ar    1  UNL1        0.0520
      2 C         138.7208  137.4368  164.7060 C.ar    1  UNL1        0.0147
      3 C         138.1546  137.3294  166.0908 C.ar    1  UNL1        0.0013
      4 C         137.9323  138.5672  166.9084 C.ar    1  UNL1        0.0001
      5 C         138.2762  139.9125  166.3410 C.ar    1  UNL1        0.0028
      6 C         138.8424  140.0200  164.9561 C.ar    1  UNL1        0.0327
      7 C         139.1863  141.3653  164.3887 C.ar    1  UNL1        0.1021
      8 C         140.5309  142.0281  164.4444 C.ar    1  UNL1        0.1008
      9 N         140.4216  143.3565  163.7562 N.ar    1  UNL1       -0.2856
     10 C         141.1850  144.5870  163.3653 C.ar    1  UNL1        0.0660
     11 C         140.2448  145.5056  162.6426 C.ar    1  UNL1        0.0528
     12 S         138.9004  144.8428  162.5869 S.2     1  UNL1       -0.0483
     13 C         139.0096  143.5145  163.2751 C.ar    1  UNL1        0.1792
     14 N         138.2462  142.2839  163.6661 N.ar    1  UNL1       -0.2205
     15 C         142.6341  144.8524  163.6474 C.3     1  UNL1        0.1176
     16 N         143.6690  143.8303  163.2813 N.3     1  UNL1       -0.2653
     17 C         143.9023  143.4817  161.8412 C.3     1  UNL1        0.0897
     18 C         144.9373  142.4596  161.4751 C.3     1  UNL1        0.0862
     19 N         145.7389  141.7860  162.5491 N.3     1  UNL1       -0.2951
     20 C         145.5056  142.1345  163.9893 C.3     1  UNL1        0.0862
     21 C         144.4707  143.1567  164.3554 C.3     1  UNL1        0.0897
     22 H         146.7199  141.9852  162.3531 H       1  UNL1        0.1233
     23 O         141.9843  138.2772  163.6684 O.2     1  UNL1       -0.2681
     24 C         141.0907  138.6372  162.5186 C.2     1  UNL1        0.2688
     25 N         139.6308  138.8896  162.7538 N.am    1  UNL1       -0.2791
     26 H         139.0443  139.1258  161.9991 H       1  UNL1        0.1552
     27 C         141.6568  138.7446  161.1337 C.ar    1  UNL1        0.1538
     28 C         143.1185  139.0206  160.9404 C.ar    1  UNL1        0.1225
     29 N         143.6847  139.1281  159.5555 N.ar    1  UNL1       -0.2406
     30 C         142.7892  138.9596  158.3640 C.ar    1  UNL1        0.0989
     31 C         143.3554  139.0670  156.9791 C.ar    1  UNL1        0.0206
     32 C         142.4599  138.8985  155.7876 C.ar    1  UNL1        0.0016
     33 C         140.9983  138.6225  155.9809 C.ar    1  UNL1        0.0016
     34 C         140.4321  138.5150  157.3658 C.ar    1  UNL1        0.0206
     35 C         141.3276  138.6836  158.5573 C.ar    1  UNL1        0.0991
     36 N         140.7614  138.5761  159.9422 N.ar    1  UNL1       -0.2377
@<TRIPOS>BOND
     1    23    24    2
     2    24    25   am
     3    25     1    1
     4     1     2   ar
     5     2     3   ar
     6     3     4   ar
     7     4     5   ar
     8     5     6   ar
     9     6     7    1
    10     7     8   ar
    11     8     9   ar
    12     9    10   ar
    13    10    15    1
    14    15    16    1
    15    16    17    1
    16    17    18    1
    17    18    19    1
    18    19    20    1
    19    20    21    1
    20    10    11   ar
    21    11    12   ar
    22    12    13   ar
    23    13    14   ar
    24    24    27    1
    25    27    28   ar
    26    28    29   ar
    27    29    30   ar
    28    30    31   ar
    29    31    32   ar
    30    32    33   ar
    31    33    34   ar
    32    34    35   ar
    33    35    36   ar
    34     6     1   ar
    35    14     7   ar
    36    36    27   ar
    37    13     9   ar
    38    35    30   ar
    39    21    16    1
    40    25    26    1
    41    19    22    1
@<TRIPOS>MOLECULE
*****
 36 41 0 0 0
SMALL
GASTEIGER

@<TRIPOS>ATOM
      1 C         139.4475  139.1621  165.1479 C.ar    1  UNL1        0.0520
      2 C         138.2222  138.6158  165.8189 C.ar    1  UNL1        0.0147
      3 C         137.9705  138.9027  167.2695 C.ar    1  UNL1        0.0013
      4 C         138.9442  139.7360  168.0492 C.ar    1  UNL1        0.0001
      5 C         140.1695  140.2822  167.3782 C.ar    1  UNL1        0.0028
      6 C         140.4211  139.9953  165.9275 C.ar    1  UNL1        0.0327
      7 C         141.6464  140.5415  165.2565 C.ar    1  UNL1        0.1021
      8 C         141.7610  141.8760  164.5810 C.ar    1  UNL1        0.1008
      9 N         143.1577  142.0084  164.0502 N.ar    1  UNL1       -0.2856
     10 C         144.0916  142.9150  163.3047 C.ar    1  UNL1        0.0660
     11 C         145.4175  142.2228  163.1913 C.ar    1  UNL1        0.0528
     12 S         145.3029  140.8884  163.8668 S.2     1  UNL1       -0.0483
     13 C         143.9063  140.7559  164.3976 C.ar    1  UNL1        0.1792
     14 N         142.9723  139.8493  165.1431 N.ar    1  UNL1       -0.2205
     15 C         143.7583  144.2750  162.7669 C.3     1  UNL1        0.1176
     16 N         142.3981  144.5424  162.1938 N.3     1  UNL1       -0.2653
     17 C         142.0563  144.0578  160.8161 C.3     1  UNL1        0.0897
     18 C         140.6961  144.3251  160.2430 C.3     1  UNL1        0.0862
     19 N         139.6779  145.0771  161.0476 N.3     1  UNL1       -0.2951
     20 C         140.0197  145.5619  162.4254 C.3     1  UNL1        0.0862
     21 C         141.3798  145.2945  162.9985 C.3     1  UNL1        0.0897
     22 H         138.8677  144.4649  161.1434 H       1  UNL1        0.1233
     23 O         138.3225  140.9790  163.0423 O.2     1  UNL1       -0.2681
     24 C         139.1367  139.7837  162.6444 C.2     1  UNL1        0.2688
     25 N         139.6992  138.8752  163.6973 N.am    1  UNL1       -0.2791
     26 H         140.2335  138.0907  163.4361 H       1  UNL1        0.1552
     27 C         139.3883  139.4968  161.1938 C.ar    1  UNL1        0.1538
     28 C         138.3236  139.7836  160.1768 C.ar    1  UNL1        0.1225
     29 N         138.5753  139.4967  158.7262 N.ar    1  UNL1       -0.2406
     30 C         139.8916  138.9230  158.2925 C.ar    1  UNL1        0.0989
     31 C         140.1433  138.6361  156.8419 C.ar    1  UNL1        0.0206
     32 C         141.4596  138.0623  156.4082 C.ar    1  UNL1        0.0016
     33 C         142.5243  137.7755  157.4251 C.ar    1  UNL1        0.0016
     34 C         142.2726  138.0624  158.8757 C.ar    1  UNL1        0.0206
     35 C         140.9563  138.6361  159.3094 C.ar    1  UNL1        0.0991
     36 N         140.7047  138.9230  160.7601 N.ar    1  UNL1       -0.2377
@<TRIPOS>BOND
     1    23    24    2
     2    24    25   am
     3    25     1    1
     4     1     2   ar
     5     2     3   ar
     6     3     4   ar
     7     4     5   ar
     8     5     6   ar
     9     6     7    1
    10     7     8   ar
    11     8     9   ar
    12     9    10   ar
    13    10    15    1
    14    15    16    1
    15    16    17    1
    16    17    18    1
    17    18    19    1
    18    19    20    1
    19    20    21    1
    20    10    11   ar
    21    11    12   ar
    22    12    13   ar
    23    13    14   ar
    24    24    27    1
    25    27    28   ar
    26    28    29   ar
    27    29    30   ar
    28    30    31   ar
    29    31    32   ar
    30    32    33   ar
    31    33    34   ar
    32    34    35   ar
    33    35    36   ar
    34     6     1   ar
    35    14     7   ar
    36    36    27   ar
    37    13     9   ar
    38    35    30   ar
    39    21    16    1
    40    25    26    1
    41    19    22    1
@<TRIPOS>MOLECULE
*****
 36 41 0 0 0
SMALL
GASTEIGER

@<TRIPOS>ATOM
      1 C         143.7804  139.4650  156.0451 C.ar    1  UNL1        0.0520
      2 C         144.1349  140.0883  154.7276 C.ar    1  UNL1        0.0147
      3 C         144.0979  141.5795  154.5692 C.ar    1  UNL1        0.0013
      4 C         143.7064  142.4473  155.7284 C.ar    1  UNL1        0.0001
      5 C         143.3519  141.8240  157.0459 C.ar    1  UNL1        0.0028
      6 C         143.3889  140.3328  157.2042 C.ar    1  UNL1        0.0327
      7 C         143.0343  139.7094  158.5217 C.ar    1  UNL1        0.1021
      8 C         141.6474  139.5023  159.0543 C.ar    1  UNL1        0.1008
      9 N         141.7604  138.8486  160.3997 N.ar    1  UNL1       -0.2856
     10 C         140.9731  138.3167  161.5602 C.ar    1  UNL1        0.0660
     11 C         141.9432  137.7910  162.5764 C.ar    1  UNL1        0.0528
     12 S         143.3301  137.9981  162.0438 S.2     1  UNL1       -0.0483
     13 C         143.2171  138.6518  160.6985 C.ar    1  UNL1        0.1792
     14 N         144.0044  139.1838  159.5378 N.ar    1  UNL1       -0.2205
     15 C         139.4782  138.3113  161.6832 C.3     1  UNL1        0.1176
     16 N         138.7983  139.2751  162.6099 N.3     1  UNL1       -0.2653
     17 C         138.0471  140.4479  162.0530 C.3     1  UNL1        0.0897
     18 C         137.3672  141.4117  162.9797 C.3     1  UNL1        0.0862
     19 N         137.4385  141.2027  164.4632 N.3     1  UNL1       -0.2951
     20 C         138.1897  140.0299  165.0203 C.3     1  UNL1        0.0862
     21 C         138.8696  139.0661  164.0936 C.3     1  UNL1        0.0897
     22 H         136.4776  141.1217  164.7957 H       1  UNL1        0.1233
     23 O         141.3252  137.8354  155.4825 O.2     1  UNL1       -0.2681
     24 C         142.5898  137.1590  155.9221 C.2     1  UNL1        0.2688
     25 N         143.8174  137.9739  156.2034 N.am    1  UNL1       -0.2791
     26 H         144.6474  137.5299  156.4920 H       1  UNL1        0.1552
     27 C         142.6268  135.6679  156.0805 C.ar    1  UNL1        0.1538
     28 C         141.5720  134.8187  155.4351 C.ar    1  UNL1        0.1225
     29 N         141.6090  133.3276  155.5935 N.ar    1  UNL1       -0.2406
     30 C         142.7007  132.6856  156.3972 C.ar    1  UNL1        0.0989
     31 C         142.7377  131.1945  156.5556 C.ar    1  UNL1        0.0206
     32 C         143.8295  130.5524  157.3593 C.ar    1  UNL1        0.0016
     33 C         144.8842  131.4015  158.0046 C.ar    1  UNL1        0.0016
     34 C         144.8472  132.8927  157.8463 C.ar    1  UNL1        0.0206
     35 C         143.7555  133.5347  157.0425 C.ar    1  UNL1        0.0991
     36 N         143.7185  135.0259  156.8842 N.ar    1  UNL1       -0.2377
@<TRIPOS>BOND
     1    23    24    2
     2    24    25   am
     3    25     1    1
     4     1     2   ar
     5     2     3   ar
     6     3     4   ar
     7     4     5   ar
     8     5     6   ar
     9     6     7    1
    10     7     8   ar
    11     8     9   ar
    12     9    10   ar
    13    10    15    1
    14    15    16    1
    15    16    17    1
    16    17    18    1
    17    18    19    1
    18    19    20    1
    19    20    21    1
    20    10    11   ar
    21    11    12   ar
    22    12    13   ar
    23    13    14   ar
    24    24    27    1
    25    27    28   ar
    26    28    29   ar
    27    29    30   ar
    28    30    31   ar
    29    31    32   ar
    30    32    33   ar
    31    33    34   ar
    32    34    35   ar
    33    35    36   ar
    34     6     1   ar
    35    14     7   ar
    36    36    27   ar
    37    13     9   ar
    38    35    30   ar
    39    21    16    1
    40    25    26    1
    41    19    22    1
@<TRIPOS>MOLECULE
*****
 36 41 0 0 0
SMALL
GASTEIGER

@<TRIPOS>ATOM
      1 C         138.6849  142.3447  157.8928 C.ar    1  UNL1        0.0520
      2 C         137.4973  142.4080  156.9787 C.ar    1  UNL1        0.0147
      3 C         137.4165  143.4742  155.9268 C.ar    1  UNL1        0.0013
      4 C         138.5234  144.4773  155.7890 C.ar    1  UNL1        0.0001
      5 C         139.7109  144.4140  156.7031 C.ar    1  UNL1        0.0028
      6 C         139.7917  143.3477  157.7551 C.ar    1  UNL1        0.0327
      7 C         140.9793  143.2845  158.6692 C.ar    1  UNL1        0.1021
      8 C         141.1012  143.9577  160.0042 C.ar    1  UNL1        0.1008
      9 N         142.4507  143.6261  160.5689 N.ar    1  UNL1       -0.2856
     10 C         143.3600  143.8374  161.7430 C.ar    1  UNL1        0.0660
     11 C         144.6342  143.0898  161.4827 C.ar    1  UNL1        0.0528
     12 S         144.5123  142.4167  160.1478 S.2     1  UNL1       -0.0483
     13 C         143.1628  142.7481  159.5830 C.ar    1  UNL1        0.1792
     14 N         142.2534  142.5370  158.4090 N.ar    1  UNL1       -0.2205
     15 C         143.0498  144.6528  162.9631 C.3     1  UNL1        0.1176
     16 N         141.8685  144.3030  163.8186 N.3     1  UNL1       -0.2653
     17 C         140.5684  145.0284  163.6350 C.3     1  UNL1        0.0897
     18 C         139.3871  144.6786  164.4905 C.3     1  UNL1        0.0862
     19 N         139.5057  143.6036  165.5297 N.3     1  UNL1       -0.2951
     20 C         140.8058  142.8782  165.7135 C.3     1  UNL1        0.0862
     21 C         141.9871  143.2279  164.8579 C.3     1  UNL1        0.0897
     22 H         138.8041  142.8981  165.3050 H       1  UNL1        0.1233
     23 O         137.9262  142.9727  160.7266 O.2     1  UNL1       -0.2681
     24 C         138.3864  141.5925  160.3617 C.2     1  UNL1        0.2688
     25 N         138.7657  141.2785  158.9448 N.am    1  UNL1       -0.2791
     26 H         139.0677  140.3726  158.7052 H       1  UNL1        0.1552
     27 C         138.4672  140.5263  161.4136 C.ar    1  UNL1        0.1538
     28 C         138.7432  139.1050  161.0213 C.ar    1  UNL1        0.1225
     29 N         138.8240  138.0387  162.0732 N.ar    1  UNL1       -0.2406
     30 C         138.6288  138.3937  163.5174 C.ar    1  UNL1        0.0989
     31 C         138.7096  137.3275  164.5693 C.ar    1  UNL1        0.0206
     32 C         138.5144  137.6824  166.0136 C.ar    1  UNL1        0.0016
     33 C         138.2384  139.1036  166.4060 C.ar    1  UNL1        0.0016
     34 C         138.1576  140.1698  165.3541 C.ar    1  UNL1        0.0206
     35 C         138.3528  139.8149  163.9098 C.ar    1  UNL1        0.0991
     36 N         138.2720  140.8812  162.8579 N.ar    1  UNL1       -0.2377
@<TRIPOS>BOND
     1    23    24    2
     2    24    25   am
     3    25     1    1
     4     1     2   ar
     5     2     3   ar
     6     3     4   ar
     7     4     5   ar
     8     5     6   ar
     9     6     7    1
    10     7     8   ar
    11     8     9   ar
    12     9    10   ar
    13    10    15    1
    14    15    16    1
    15    16    17    1
    16    17    18    1
    17    18    19    1
    18    19    20    1
    19    20    21    1
    20    10    11   ar
    21    11    12   ar
    22    12    13   ar
    23    13    14   ar
    24    24    27    1
    25    27    28   ar
    26    28    29   ar
    27    29    30   ar
    28    30    31   ar
    29    31    32   ar
    30    32    33   ar
    31    33    34   ar
    32    34    35   ar
    33    35    36   ar
    34     6     1   ar
    35    14     7   ar
    36    36    27   ar
    37    13     9   ar
    38    35    30   ar
    39    21    16    1
    40    25    26    1
    41    19    22    1
@<TRIPOS>MOLECULE
*****
 36 41 0 0 0
SMALL
GASTEIGER

@<TRIPOS>ATOM
      1 C         139.2168  142.2563  162.8390 C.ar    1  UNL1        0.0520
      2 C         138.2211  143.2370  162.2941 C.ar    1  UNL1        0.0147
      3 C         137.7085  144.3468  163.1633 C.ar    1  UNL1        0.0013
      4 C         138.1916  144.4759  164.5776 C.ar    1  UNL1        0.0001
      5 C         139.1873  143.4953  165.1225 C.ar    1  UNL1        0.0028
      6 C         139.6999  142.3855  164.2532 C.ar    1  UNL1        0.0327
      7 C         140.6956  141.4048  164.7981 C.ar    1  UNL1        0.1021
      8 C         140.8808  141.0472  166.2431 C.ar    1  UNL1        0.1008
      9 N         141.9806  140.0310  166.3318 N.ar    1  UNL1       -0.2856
     10 C         142.7747  139.1820  167.2796 C.ar    1  UNL1        0.0660
     11 C         143.7599  138.3867  166.4752 C.ar    1  UNL1        0.0528
     12 S         143.5746  138.7443  165.0303 S.2     1  UNL1       -0.0483
     13 C         142.4750  139.7605  164.9416 C.ar    1  UNL1        0.1792
     14 N         141.6808  140.6095  163.9938 N.ar    1  UNL1       -0.2205
     15 C         142.6123  139.1361  168.7700 C.3     1  UNL1        0.1176
     16 N         142.2961  140.3907  169.5291 N.3     1  UNL1       -0.2653
     17 C         141.0453  140.4737  170.3529 C.3     1  UNL1        0.0897
     18 C         140.7291  141.7282  171.1119 C.3     1  UNL1        0.0862
     19 N         141.6635  142.8997  171.0471 N.3     1  UNL1       -0.2951
     20 C         142.9144  142.8167  170.2233 C.3     1  UNL1        0.0862
     21 C         143.2306  141.5622  169.4642 C.3     1  UNL1        0.0897
     22 H         141.9542  143.0978  172.0046 H       1  UNL1        0.1233
     23 O         141.2664  142.8314  160.7251 O.2     1  UNL1       -0.2681
     24 C         140.7542  141.4341  160.9128 C.2     1  UNL1        0.2688
     25 N         139.7294  141.1466  161.9698 N.am    1  UNL1       -0.2791
     26 H         139.3933  140.2295  162.0930 H       1  UNL1        0.1552
     27 C         141.2668  140.3243  160.0435 C.ar    1  UNL1        0.1538
     28 C         142.6753  139.8343  160.2054 C.ar    1  UNL1        0.1225
     29 N         143.1879  138.7246  159.3362 N.ar    1  UNL1       -0.2406
     30 C         142.2921  138.1048  158.3050 C.ar    1  UNL1        0.0989
     31 C         142.8047  136.9950  157.4358 C.ar    1  UNL1        0.0206
     32 C         141.9088  136.3752  156.4046 C.ar    1  UNL1        0.0016
     33 C         140.5004  136.8651  156.2427 C.ar    1  UNL1        0.0016
     34 C         139.9878  137.9748  157.1120 C.ar    1  UNL1        0.0206
     35 C         140.8836  138.5947  158.1431 C.ar    1  UNL1        0.0991
     36 N         140.3710  139.7045  159.0124 N.ar    1  UNL1       -0.2377
@<TRIPOS>BOND
     1    23    24    2
     2    24    25   am
     3    25     1    1
     4     1     2   ar
     5     2     3   ar
     6     3     4   ar
     7     4     5   ar
     8     5     6   ar
     9     6     7    1
    10     7     8   ar
    11     8     9   ar
    12     9    10   ar
    13    10    15    1
    14    15    16    1
    15    16    17    1
    16    17    18    1
    17    18    19    1
    18    19    20    1
    19    20    21    1
    20    10    11   ar
    21    11    12   ar
    22    12    13   ar
    23    13    14   ar
    24    24    27    1
    25    27    28   ar
    26    28    29   ar
    27    29    30   ar
    28    30    31   ar
    29    31    32   ar
    30    32    33   ar
    31    33    34   ar
    32    34    35   ar
    33    35    36   ar
    34     6     1   ar
    35    14     7   ar
    36    36    27   ar
    37    13     9   ar
    38    35    30   ar
    39    21    16    1
    40    25    26    1
    41    19    22    1
@<TRIPOS>MOLECULE
*****
 36 41 0 0 0
SMALL
GASTEIGER

@<TRIPOS>ATOM
      1 C         140.1008  140.2968  167.2018 C.ar    1  UNL1        0.0520
      2 C         139.1347  140.0380  168.3197 C.ar    1  UNL1        0.0147
      3 C         139.5305  140.3323  169.7362 C.ar    1  UNL1        0.0013
      4 C         140.8925  140.8853  170.0350 C.ar    1  UNL1        0.0001
      5 C         141.8586  141.1441  168.9171 C.ar    1  UNL1        0.0028
      6 C         141.4627  140.8498  167.5005 C.ar    1  UNL1        0.0327
      7 C         142.4288  141.1085  166.3826 C.ar    1  UNL1        0.1021
      8 C         142.5625  142.3881  165.6112 C.ar    1  UNL1        0.1008
      9 N         143.6472  142.2035  164.5917 N.ar    1  UNL1       -0.2856
     10 C         144.4001  142.8802  163.4849 C.ar    1  UNL1        0.0660
     11 C         145.4022  141.9049  162.9421 C.ar    1  UNL1        0.0528
     12 S         145.2685  140.6254  163.7135 S.2     1  UNL1       -0.0483
     13 C         144.1839  140.8099  164.7329 C.ar    1  UNL1        0.1792
     14 N         143.4309  140.1332  165.8398 N.ar    1  UNL1       -0.2205
     15 C         144.1883  144.2855  163.0050 C.3     1  UNL1        0.1176
     16 N         142.8843  144.6741  162.3739 N.3     1  UNL1       -0.2653
     17 C         142.6097  144.3219  160.9419 C.3     1  UNL1        0.0897
     18 C         141.3056  144.7105  160.3108 C.3     1  UNL1        0.0862
     19 N         140.2762  145.4513  161.1116 N.3     1  UNL1       -0.2951
     20 C         140.5507  145.8035  162.5436 C.3     1  UNL1        0.0862
     21 C         141.8548  145.4149  163.1748 C.3     1  UNL1        0.0897
     22 H         139.4313  144.8797  161.1057 H       1  UNL1        0.1233
     23 O         139.0372  142.4915  165.4548 O.2     1  UNL1       -0.2681
     24 C         139.1731  141.0999  164.9117 C.2     1  UNL1        0.2688
     25 N         139.7050  140.0025  165.7852 N.am    1  UNL1       -0.2791
     26 H         139.7942  139.0892  165.4288 H       1  UNL1        0.1552
     27 C         138.7773  140.8057  163.4951 C.ar    1  UNL1        0.1538
     28 C         138.2405  139.4528  163.1319 C.ar    1  UNL1        0.1225
     29 N         137.8447  139.1586  161.7154 N.ar    1  UNL1       -0.2406
     30 C         137.9856  140.2171  160.6619 C.ar    1  UNL1        0.0989
     31 C         137.5898  139.9228  159.2454 C.ar    1  UNL1        0.0206
     32 C         137.7308  140.9813  158.1919 C.ar    1  UNL1        0.0016
     33 C         138.2675  142.3341  158.5551 C.ar    1  UNL1        0.0016
     34 C         138.6634  142.6283  159.9716 C.ar    1  UNL1        0.0206
     35 C         138.5224  141.5698  161.0250 C.ar    1  UNL1        0.0991
     36 N         138.9183  141.8641  162.4417 N.ar    1  UNL1       -0.2377
@<TRIPOS>BOND
     1    23    24    2
     2    24    25   am
     3    25     1    1
     4     1     2   ar
     5     2     3   ar
     6     3     4   ar
     7     4     5   ar
     8     5     6   ar
     9     6     7    1
    10     7     8   ar
    11     8     9   ar
    12     9    10   ar
    13    10    15    1
    14    15    16    1
    15    16    17    1
    16    17    18    1
    17    18    19    1
    18    19    20    1
    19    20    21    1
    20    10    11   ar
    21    11    12   ar
    22    12    13   ar
    23    13    14   ar
    24    24    27    1
    25    27    28   ar
    26    28    29   ar
    27    29    30   ar
    28    30    31   ar
    29    31    32   ar
    30    32    33   ar
    31    33    34   ar
    32    34    35   ar
    33    35    36   ar
    34     6     1   ar
    35    14     7   ar
    36    36    27   ar
    37    13     9   ar
    38    35    30   ar
    39    21    16    1
    40    25    26    1
    41    19    22    1
@<TRIPOS>MOLECULE
*****
 36 41 0 0 0
SMALL
GASTEIGER

@<TRIPOS>ATOM
      1 C         139.4844  138.1126  155.7739 C.ar    1  UNL1        0.0520
      2 C         138.8562  138.4547  154.4555 C.ar    1  UNL1        0.0147
      3 C         138.3614  139.8474  154.1994 C.ar    1  UNL1        0.0013
      4 C         138.4946  140.8979  155.2618 C.ar    1  UNL1        0.0001
      5 C         139.1227  140.5557  156.5803 C.ar    1  UNL1        0.0028
      6 C         139.6176  139.1630  156.8363 C.ar    1  UNL1        0.0327
      7 C         140.2458  138.8208  158.1548 C.ar    1  UNL1        0.1021
      8 C         139.5256  138.6710  159.4621 C.ar    1  UNL1        0.1008
      9 N         140.5391  138.3260  160.5127 N.ar    1  UNL1       -0.2856
     10 C         140.7203  138.0202  161.9700 C.ar    1  UNL1        0.0660
     11 C         142.1790  137.7678  162.2126 C.ar    1  UNL1        0.0528
     12 S         142.8991  137.9176  160.9054 S.2     1  UNL1       -0.0483
     13 C         141.8856  138.2626  159.8548 C.ar    1  UNL1        0.1792
     14 N         141.7043  138.5684  158.3975 N.ar    1  UNL1       -0.2205
     15 C         139.6339  137.9747  163.0032 C.3     1  UNL1        0.1176
     16 N         138.9657  139.2427  163.4453 N.3     1  UNL1       -0.2653
     17 C         137.9719  139.9190  162.5481 C.3     1  UNL1        0.0897
     18 C         137.3037  141.1871  162.9902 C.3     1  UNL1        0.0862
     19 N         137.6292  141.7788  164.3294 N.3     1  UNL1       -0.2951
     20 C         138.6230  141.1025  165.2268 C.3     1  UNL1        0.0862
     21 C         139.2912  139.8345  164.7846 C.3     1  UNL1        0.0897
     22 H         136.7527  141.8326  164.8484 H       1  UNL1        0.1233
     23 O         142.1933  137.2788  154.7908 O.2     1  UNL1       -0.2681
     24 C         141.3338  136.3030  155.5384 C.2     1  UNL1        0.2688
     25 N         139.9793  136.7199  156.0300 N.am    1  UNL1       -0.2791
     26 H         139.4151  136.0795  156.5207 H       1  UNL1        0.1552
     27 C         141.8286  134.9104  155.7945 C.ar    1  UNL1        0.1538
     28 C         141.1404  133.7405  155.1558 C.ar    1  UNL1        0.1225
     29 N         141.6353  132.3479  155.4119 N.ar    1  UNL1       -0.2406
     30 C         142.8184  132.1250  156.3066 C.ar    1  UNL1        0.0989
     31 C         143.3133  130.7324  156.5627 C.ar    1  UNL1        0.0206
     32 C         144.4964  130.5095  157.4574 C.ar    1  UNL1        0.0016
     33 C         145.1847  131.6793  158.0961 C.ar    1  UNL1        0.0016
     34 C         144.6898  133.0719  157.8400 C.ar    1  UNL1        0.0206
     35 C         143.5067  133.2948  156.9453 C.ar    1  UNL1        0.0991
     36 N         143.0118  134.6875  156.6892 N.ar    1  UNL1       -0.2377
@<TRIPOS>BOND
     1    23    24    2
     2    24    25   am
     3    25     1    1
     4     1     2   ar
     5     2     3   ar
     6     3     4   ar
     7     4     5   ar
     8     5     6   ar
     9     6     7    1
    10     7     8   ar
    11     8     9   ar
    12     9    10   ar
    13    10    15    1
    14    15    16    1
    15    16    17    1
    16    17    18    1
    17    18    19    1
    18    19    20    1
    19    20    21    1
    20    10    11   ar
    21    11    12   ar
    22    12    13   ar
    23    13    14   ar
    24    24    27    1
    25    27    28   ar
    26    28    29   ar
    27    29    30   ar
    28    30    31   ar
    29    31    32   ar
    30    32    33   ar
    31    33    34   ar
    32    34    35   ar
    33    35    36   ar
    34     6     1   ar
    35    14     7   ar
    36    36    27   ar
    37    13     9   ar
    38    35    30   ar
    39    21    16    1
    40    25    26    1
    41    19    22    1
