@<TRIPOS>MOLECULE
*****
 31 33 0 0 0
SMALL
GASTEIGER

@<TRIPOS>ATOM
      1 C         138.4347  137.7945  162.5452 C.3     1  UNL1        0.0386
      2 C         138.1126  139.0637  161.8136 C.3     1  UNL1        0.0912
      3 C         138.4661  141.5432  162.5045 C.2     1  UNL1        0.2637
      4 O         137.0265  141.6338  162.9160 O.2     1  UNL1       -0.2685
      5 N         139.0091  140.2581  161.9533 N.am    1  UNL1       -0.2996
      6 H         139.9540  140.1987  161.6832 H       1  UNL1        0.1498
      7 C         139.4875  146.5425  161.5229 C.3     1  UNL1        0.0736
      8 C         139.8734  145.2373  162.1534 C.ar    1  UNL1        0.1393
      9 N         138.9768  144.0428  162.0137 N.ar    1  UNL1       -0.2261
     10 C         139.3627  142.7376  162.6442 C.ar    1  UNL1        0.1369
     11 C         140.6451  142.6268  163.4143 C.ar    1  UNL1        0.0385
     12 C         141.5416  143.8212  163.5539 C.ar    1  UNL1        0.0616
     13 N         141.1558  145.1264  162.9235 N.ar    1  UNL1       -0.2350
     14 C         142.8241  143.7104  164.3241 C.3     1  UNL1        0.0404
     15 C         143.0867  142.5026  165.1739 C.3     1  UNL1        0.0063
     16 C         143.8439  144.8075  164.2444 C.3     1  UNL1        0.0063
     17 C         139.7204  137.6744  163.3086 C.3     1  UNL1        0.0739
     18 N         139.8927  138.4055  164.6070 N.3     1  UNL1       -0.2697
     19 C         138.6886  138.8243  165.3974 C.3     1  UNL1        0.0938
     20 C         138.8609  139.5553  166.6958 C.3     1  UNL1        0.1081
     21 N         140.2374  139.8676  167.2038 N.pl3   1  UNL1       -0.3040
     22 C         141.4414  139.4489  166.4133 C.3     1  UNL1        0.1081
     23 C         141.2691  138.7178  165.1149 C.3     1  UNL1        0.0938
     24 C         140.4097  140.5987  168.5022 C.ar    1  UNL1        0.0594
     25 C         140.6212  139.8305  169.7731 C.ar    1  UNL1        0.0154
     26 C         140.7935  140.5616  171.0715 C.ar    1  UNL1        0.0022
     27 C         140.7543  142.0609  171.0990 C.ar    1  UNL1        0.0123
     28 C         140.5429  142.8290  169.8281 C.ar    1  UNL1        0.0694
     29 CL        140.5037  144.3282  169.8556 Cl      1  UNL1       -0.0813
     30 C         140.3705  142.0979  168.5297 C.ar    1  UNL1        0.0815
     31 CL        140.1591  142.8661  167.2588 Cl      1  UNL1       -0.0801
@<TRIPOS>BOND
     1     7     8    1
     2     8     9   ar
     3     9    10   ar
     4    10     3    1
     5     3     4    2
     6     3     5   am
     7     5     2    1
     8     2     1    1
     9     1    17    1
    10    17    18    1
    11    18    19    1
    12    19    20    1
    13    20    21    1
    14    21    24    1
    15    24    25   ar
    16    25    26   ar
    17    26    27   ar
    18    27    28   ar
    19    28    29    1
    20    28    30   ar
    21    30    31    1
    22    21    22    1
    23    22    23    1
    24    10    11   ar
    25    11    12   ar
    26    12    14    1
    27    14    15    1
    28    14    16    1
    29    12    13   ar
    30    13     8   ar
    31    23    18    1
    32    30    24   ar
    33     5     6    1
@<TRIPOS>MOLECULE
*****
 31 33 0 0 0
SMALL
GASTEIGER

@<TRIPOS>ATOM
      1 C         140.8215  140.0368  170.3848 C.3     1  UNL1        0.0386
      2 C         139.5199  140.0569  169.6395 C.3     1  UNL1        0.0912
      3 C         138.5674  139.5132  167.2843 C.2     1  UNL1        0.2637
      4 O         137.6394  138.5040  167.8925 O.2     1  UNL1       -0.2685
      5 N         139.5077  140.2897  168.1577 N.am    1  UNL1       -0.2996
      6 H         140.1168  140.9521  167.7585 H       1  UNL1        0.1498
      7 C         138.9869  137.6855  162.4383 C.3     1  UNL1        0.0736
      8 C         138.7650  138.8322  163.3795 C.ar    1  UNL1        0.1393
      9 N         138.7772  138.5994  164.8612 N.ar    1  UNL1       -0.2261
     10 C         138.5553  139.7461  165.8024 C.ar    1  UNL1        0.1369
     11 C         138.3212  141.1255  165.2619 C.ar    1  UNL1        0.0385
     12 C         138.3090  141.3583  163.7802 C.ar    1  UNL1        0.0616
     13 N         138.5309  140.2116  162.8390 N.ar    1  UNL1       -0.2350
     14 C         138.0749  142.7378  163.2395 C.3     1  UNL1        0.0404
     15 C         138.1639  142.9900  161.7636 C.3     1  UNL1        0.0063
     16 C         137.7518  143.8651  164.1749 C.3     1  UNL1        0.0063
     17 C         142.0683  139.5555  169.7038 C.3     1  UNL1        0.0739
     18 N         142.4806  140.1472  168.3886 N.3     1  UNL1       -0.2697
     19 C         142.6229  139.2673  167.1820 C.3     1  UNL1        0.0938
     20 C         143.0352  139.8590  165.8667 C.3     1  UNL1        0.1081
     21 N         143.3052  141.3306  165.7580 N.pl3   1  UNL1       -0.3040
     22 C         143.1629  142.2103  166.9645 C.3     1  UNL1        0.1081
     23 C         142.7506  141.6186  168.2798 C.3     1  UNL1        0.0938
     24 C         143.7175  141.9223  164.4428 C.ar    1  UNL1        0.0594
     25 C         145.0436  141.5623  163.8412 C.ar    1  UNL1        0.0154
     26 C         145.4559  142.1540  162.5259 C.ar    1  UNL1        0.0022
     27 C         144.5420  143.1057  161.8122 C.ar    1  UNL1        0.0123
     28 C         143.2160  143.4656  162.4138 C.ar    1  UNL1        0.0694
     29 CL        142.3022  144.4172  161.7002 Cl      1  UNL1       -0.0813
     30 C         142.8037  142.8739  163.7291 C.ar    1  UNL1        0.0815
     31 CL        141.4776  143.2338  164.3307 Cl      1  UNL1       -0.0801
@<TRIPOS>BOND
     1     7     8    1
     2     8     9   ar
     3     9    10   ar
     4    10     3    1
     5     3     4    2
     6     3     5   am
     7     5     2    1
     8     2     1    1
     9     1    17    1
    10    17    18    1
    11    18    19    1
    12    19    20    1
    13    20    21    1
    14    21    24    1
    15    24    25   ar
    16    25    26   ar
    17    26    27   ar
    18    27    28   ar
    19    28    29    1
    20    28    30   ar
    21    30    31    1
    22    21    22    1
    23    22    23    1
    24    10    11   ar
    25    11    12   ar
    26    12    14    1
    27    14    15    1
    28    14    16    1
    29    12    13   ar
    30    13     8   ar
    31    23    18    1
    32    30    24   ar
    33     5     6    1
@<TRIPOS>MOLECULE
*****
 31 33 0 0 0
SMALL
GASTEIGER

@<TRIPOS>ATOM
      1 C         140.6377  142.6744  156.8007 C.3     1  UNL1        0.0386
      2 C         140.5478  144.0672  157.3503 C.3     1  UNL1        0.0912
      3 C         141.6744  144.2027  159.6875 C.2     1  UNL1        0.2637
      4 O         143.0053  143.9045  159.0633 O.2     1  UNL1       -0.2685
      5 N         140.4456  144.2840  158.8310 N.am    1  UNL1       -0.2996
      6 H         139.5721  144.4797  159.2407 H       1  UNL1        0.1498
      7 C         143.9456  145.1474  164.2645 C.3     1  UNL1        0.0736
      8 C         142.7078  144.8919  163.4567 C.ar    1  UNL1        0.1393
      9 N         142.8100  144.6750  161.9760 N.ar    1  UNL1       -0.2261
     10 C         141.5721  144.4195  161.1683 C.ar    1  UNL1        0.1369
     11 C         140.2321  144.3809  161.8412 C.ar    1  UNL1        0.0385
     12 C         140.1300  144.5977  163.3218 C.ar    1  UNL1        0.0616
     13 N         141.3678  144.8532  164.1296 N.ar    1  UNL1       -0.2350
     14 C         138.7899  144.5591  163.9948 C.3     1  UNL1        0.0404
     15 C         138.6668  144.9309  165.4428 C.3     1  UNL1        0.0063
     16 C         137.5730  144.1486  163.2198 C.3     1  UNL1        0.0063
     17 C         139.7051  141.6101  157.2983 C.3     1  UNL1        0.0739
     18 N         139.6749  141.2615  158.7569 N.3     1  UNL1       -0.2697
     19 C         140.8964  140.6948  159.4180 C.3     1  UNL1        0.0938
     20 C         140.8662  140.3462  160.8767 C.3     1  UNL1        0.1081
     21 N         139.6145  140.5643  161.6741 N.pl3   1  UNL1       -0.3040
     22 C         138.3931  141.1309  161.0130 C.3     1  UNL1        0.1081
     23 C         138.4234  141.4795  159.5544 C.3     1  UNL1        0.0938
     24 C         139.5843  140.2157  163.1327 C.ar    1  UNL1        0.0594
     25 C         140.0947  141.1944  164.1485 C.ar    1  UNL1        0.0154
     26 C         140.0645  140.8458  165.6071 C.ar    1  UNL1        0.0022
     27 C         139.5239  139.5185  166.0500 C.ar    1  UNL1        0.0123
     28 C         139.0135  138.5399  165.0342 C.ar    1  UNL1        0.0694
     29 CL        138.4729  137.2126  165.4771 Cl      1  UNL1       -0.0813
     30 C         139.0437  138.8885  163.5756 C.ar    1  UNL1        0.0815
     31 CL        138.5334  137.9098  162.5599 Cl      1  UNL1       -0.0801
@<TRIPOS>BOND
     1     7     8    1
     2     8     9   ar
     3     9    10   ar
     4    10     3    1
     5     3     4    2
     6     3     5   am
     7     5     2    1
     8     2     1    1
     9     1    17    1
    10    17    18    1
    11    18    19    1
    12    19    20    1
    13    20    21    1
    14    21    24    1
    15    24    25   ar
    16    25    26   ar
    17    26    27   ar
    18    27    28   ar
    19    28    29    1
    20    28    30   ar
    21    30    31    1
    22    21    22    1
    23    22    23    1
    24    10    11   ar
    25    11    12   ar
    26    12    14    1
    27    14    15    1
    28    14    16    1
    29    12    13   ar
    30    13     8   ar
    31    23    18    1
    32    30    24   ar
    33     5     6    1
@<TRIPOS>MOLECULE
*****
 31 33 0 0 0
SMALL
GASTEIGER

@<TRIPOS>ATOM
      1 C         141.6358  139.2489  170.1765 C.3     1  UNL1        0.0386
      2 C         142.8421  139.5325  169.3313 C.3     1  UNL1        0.0912
      3 C         143.3110  138.7471  166.8996 C.2     1  UNL1        0.2637
      4 O         144.0799  137.5722  167.4274 O.2     1  UNL1       -0.2685
      5 N         142.6921  139.7272  167.8516 N.am    1  UNL1       -0.2996
      6 H         142.1875  140.4983  167.5052 H       1  UNL1        0.1498
      7 C         141.0651  137.4548  162.3956 C.3     1  UNL1        0.0736
      8 C         142.0381  138.2956  163.1679 C.ar    1  UNL1        0.1393
      9 N         142.1881  138.1009  164.6476 N.ar    1  UNL1       -0.2261
     10 C         143.1610  138.9418  165.4199 C.ar    1  UNL1        0.1369
     11 C         143.9839  139.9773  164.7124 C.ar    1  UNL1        0.0385
     12 C         143.8339  140.1720  163.2327 C.ar    1  UNL1        0.0616
     13 N         142.8610  139.3312  162.4605 N.ar    1  UNL1       -0.2350
     14 C         144.6568  141.2076  162.5252 C.3     1  UNL1        0.0404
     15 C         145.8031  141.8668  163.2333 C.3     1  UNL1        0.0063
     16 C         144.3334  141.5838  161.1097 C.3     1  UNL1        0.0063
     17 C         140.3863  140.0590  169.9960 C.3     1  UNL1        0.0739
     18 N         140.1697  140.8313  168.7284 N.3     1  UNL1       -0.2697
     19 C         140.5026  142.2929  168.6746 C.3     1  UNL1        0.0938
     20 C         140.2861  143.0652  167.4070 C.3     1  UNL1        0.1081
     21 N         139.7366  142.3758  166.1933 N.pl3   1  UNL1       -0.3040
     22 C         139.4038  140.9142  166.2472 C.3     1  UNL1        0.1081
     23 C         139.6203  140.1419  167.5148 C.3     1  UNL1        0.0938
     24 C         139.5201  143.1480  164.9257 C.ar    1  UNL1        0.0594
     25 C         138.1312  143.5337  164.5104 C.ar    1  UNL1        0.0154
     26 C         137.9147  144.3060  163.2429 C.ar    1  UNL1        0.0022
     27 C         139.0870  144.6926  162.3906 C.ar    1  UNL1        0.0123
     28 C         140.4758  144.3069  162.8059 C.ar    1  UNL1        0.0694
     29 CL        141.6480  144.6935  161.9537 Cl      1  UNL1       -0.0813
     30 C         140.6923  143.5346  164.0735 C.ar    1  UNL1        0.0815
     31 CL        142.0811  143.1490  164.4888 Cl      1  UNL1       -0.0801
@<TRIPOS>BOND
     1     7     8    1
     2     8     9   ar
     3     9    10   ar
     4    10     3    1
     5     3     4    2
     6     3     5   am
     7     5     2    1
     8     2     1    1
     9     1    17    1
    10    17    18    1
    11    18    19    1
    12    19    20    1
    13    20    21    1
    14    21    24    1
    15    24    25   ar
    16    25    26   ar
    17    26    27   ar
    18    27    28   ar
    19    28    29    1
    20    28    30   ar
    21    30    31    1
    22    21    22    1
    23    22    23    1
    24    10    11   ar
    25    11    12   ar
    26    12    14    1
    27    14    15    1
    28    14    16    1
    29    12    13   ar
    30    13     8   ar
    31    23    18    1
    32    30    24   ar
    33     5     6    1
@<TRIPOS>MOLECULE
*****
 31 33 0 0 0
SMALL
GASTEIGER

@<TRIPOS>ATOM
      1 C         140.3494  139.9867  170.7189 C.3     1  UNL1        0.0386
      2 C         139.2272  140.3904  169.8091 C.3     1  UNL1        0.0912
      3 C         138.8005  139.6767  167.3477 C.2     1  UNL1        0.2637
      4 O         137.8691  138.6005  167.8212 O.2     1  UNL1       -0.2685
      5 N         139.4796  140.5717  168.3417 N.am    1  UNL1       -0.2996
      6 H         140.0909  141.2780  168.0310 H       1  UNL1        0.1498
      7 C         138.3739  137.9589  162.4623 C.3     1  UNL1        0.0736
      8 C         138.8396  138.9991  163.4376 C.ar    1  UNL1        0.1393
      9 N         138.5872  138.8179  164.9050 N.ar    1  UNL1       -0.2261
     10 C         139.0530  139.8581  165.8802 C.ar    1  UNL1        0.1369
     11 C         139.7711  141.0795  165.3880 C.ar    1  UNL1        0.0385
     12 C         140.0235  141.2608  163.9206 C.ar    1  UNL1        0.0616
     13 N         139.5578  140.2206  162.9454 N.ar    1  UNL1       -0.2350
     14 C         140.7416  142.4823  163.4284 C.3     1  UNL1        0.0404
     15 C         140.9928  143.6309  164.3597 C.3     1  UNL1        0.0063
     16 C         141.2085  142.5551  162.0047 C.3     1  UNL1        0.0063
     17 C         141.7374  140.4984  170.4705 C.3     1  UNL1        0.0739
     18 N         142.2534  140.6158  169.0670 N.3     1  UNL1       -0.2697
     19 C         142.5437  139.3794  168.2688 C.3     1  UNL1        0.0938
     20 C         143.0597  139.4967  166.8652 C.3     1  UNL1        0.1081
     21 N         143.2854  140.8505  166.2599 N.pl3   1  UNL1       -0.3040
     22 C         142.9951  142.0869  167.0581 C.3     1  UNL1        0.1081
     23 C         142.4791  141.9695  168.4616 C.3     1  UNL1        0.0938
     24 C         143.8015  140.9679  164.8563 C.ar    1  UNL1        0.0594
     25 C         144.6758  142.1250  164.4730 C.ar    1  UNL1        0.0154
     26 C         145.1918  142.2423  163.0695 C.ar    1  UNL1        0.0022
     27 C         144.8335  141.2027  162.0492 C.ar    1  UNL1        0.0123
     28 C         143.9592  140.0457  162.4326 C.ar    1  UNL1        0.0694
     29 CL        143.6010  139.0061  161.4124 Cl      1  UNL1       -0.0813
     30 C         143.4432  139.9283  163.8361 C.ar    1  UNL1        0.0815
     31 CL        142.5689  138.7714  164.2195 Cl      1  UNL1       -0.0801
@<TRIPOS>BOND
     1     7     8    1
     2     8     9   ar
     3     9    10   ar
     4    10     3    1
     5     3     4    2
     6     3     5   am
     7     5     2    1
     8     2     1    1
     9     1    17    1
    10    17    18    1
    11    18    19    1
    12    19    20    1
    13    20    21    1
    14    21    24    1
    15    24    25   ar
    16    25    26   ar
    17    26    27   ar
    18    27    28   ar
    19    28    29    1
    20    28    30   ar
    21    30    31    1
    22    21    22    1
    23    22    23    1
    24    10    11   ar
    25    11    12   ar
    26    12    14    1
    27    14    15    1
    28    14    16    1
    29    12    13   ar
    30    13     8   ar
    31    23    18    1
    32    30    24   ar
    33     5     6    1
@<TRIPOS>MOLECULE
*****
 31 33 0 0 0
SMALL
GASTEIGER

@<TRIPOS>ATOM
      1 C         141.7503  137.6855  161.6157 C.3     1  UNL1        0.0386
      2 C         141.0099  138.8205  160.9725 C.3     1  UNL1        0.0912
      3 C         141.9035  141.0604  161.9389 C.2     1  UNL1        0.2637
      4 O         143.2631  140.7584  161.3820 O.2     1  UNL1       -0.2685
      5 N         140.7769  140.0914  161.7342 N.am    1  UNL1       -0.2996
      6 H         139.8846  140.2897  162.0998 H       1  UNL1        0.1498
      7 C         143.7281  145.4569  164.0226 C.3     1  UNL1        0.0736
      8 C         142.5828  144.5297  163.7425 C.ar    1  UNL1        0.1393
      9 N         142.8158  143.2587  162.9808 N.ar    1  UNL1       -0.2261
     10 C         141.6704  142.3314  162.7007 C.ar    1  UNL1        0.1369
     11 C         140.2921  142.6752  163.1823 C.ar    1  UNL1        0.0385
     12 C         140.0591  143.9462  163.9441 C.ar    1  UNL1        0.0616
     13 N         141.2045  144.8734  164.2242 N.ar    1  UNL1       -0.2350
     14 C         138.6807  144.2900  164.4258 C.3     1  UNL1        0.0404
     15 C         138.5021  145.0606  165.7001 C.3     1  UNL1        0.0063
     16 C         137.4810  143.8631  163.6330 C.3     1  UNL1        0.0063
     17 C         141.3381  137.1938  162.9716 C.3     1  UNL1        0.0739
     18 N         141.2694  138.1484  164.1266 N.3     1  UNL1       -0.2697
     19 C         139.9575  138.4126  164.8043 C.3     1  UNL1        0.0938
     20 C         139.8889  139.3671  165.9594 C.3     1  UNL1        0.1081
     21 N         141.1322  140.0575  166.4367 N.pl3   1  UNL1       -0.3040
     22 C         142.4440  139.7932  165.7590 C.3     1  UNL1        0.1081
     23 C         142.5126  138.8387  164.6040 C.3     1  UNL1        0.0938
     24 C         141.0635  141.0120  167.5917 C.ar    1  UNL1        0.0594
     25 C         140.4739  142.3782  167.4017 C.ar    1  UNL1        0.0154
     26 C         140.4053  143.3327  168.5567 C.ar    1  UNL1        0.0022
     27 C         140.9262  142.9211  169.9018 C.ar    1  UNL1        0.0123
     28 C         141.5158  141.5550  170.0918 C.ar    1  UNL1        0.0694
     29 CL        142.0367  141.1435  171.4369 Cl      1  UNL1       -0.0813
     30 C         141.5844  140.6005  168.9368 C.ar    1  UNL1        0.0815
     31 CL        142.1740  139.2344  169.1268 Cl      1  UNL1       -0.0801
@<TRIPOS>BOND
     1     7     8    1
     2     8     9   ar
     3     9    10   ar
     4    10     3    1
     5     3     4    2
     6     3     5   am
     7     5     2    1
     8     2     1    1
     9     1    17    1
    10    17    18    1
    11    18    19    1
    12    19    20    1
    13    20    21    1
    14    21    24    1
    15    24    25   ar
    16    25    26   ar
    17    26    27   ar
    18    27    28   ar
    19    28    29    1
    20    28    30   ar
    21    30    31    1
    22    21    22    1
    23    22    23    1
    24    10    11   ar
    25    11    12   ar
    26    12    14    1
    27    14    15    1
    28    14    16    1
    29    12    13   ar
    30    13     8   ar
    31    23    18    1
    32    30    24   ar
    33     5     6    1
@<TRIPOS>MOLECULE
*****
 31 33 0 0 0
SMALL
GASTEIGER

@<TRIPOS>ATOM
      1 C         145.2462  142.2428  161.9041 C.3     1  UNL1        0.0386
      2 C         144.0796  141.7308  161.1123 C.3     1  UNL1        0.0912
      3 C         141.8826  142.3483  162.3540 C.2     1  UNL1        0.2637
      4 O         142.1996  143.8053  162.1904 O.2     1  UNL1       -0.2685
      5 N         142.8226  141.3111  161.8149 N.am    1  UNL1       -0.2996
      6 H         142.6145  140.3549  161.9223 H       1  UNL1        0.1498
      7 C         137.3691  143.5739  164.6181 C.3     1  UNL1        0.0736
      8 C         138.3688  142.5414  164.1887 C.ar    1  UNL1        0.1393
      9 N         139.6258  142.9611  163.4861 N.ar    1  UNL1       -0.2261
     10 C         140.6255  141.9285  163.0566 C.ar    1  UNL1        0.1369
     11 C         140.3682  140.4763  163.3298 C.ar    1  UNL1        0.0385
     12 C         139.1112  140.0565  164.0324 C.ar    1  UNL1        0.0616
     13 N         138.1114  141.0891  164.4618 N.ar    1  UNL1       -0.2350
     14 C         138.8538  138.6042  164.3055 C.3     1  UNL1        0.0404
     15 C         139.1125  137.5829  163.2379 C.3     1  UNL1        0.0063
     16 C         138.3376  138.1733  165.6464 C.3     1  UNL1        0.0063
     17 C         145.6526  141.5527  163.1725 C.3     1  UNL1        0.0739
     18 N         144.6721  141.4164  164.2995 N.3     1  UNL1       -0.2697
     19 C         144.1733  142.6388  165.0116 C.3     1  UNL1        0.0938
     20 C         143.1928  142.5025  166.1386 C.3     1  UNL1        0.1081
     21 N         142.7111  141.1438  166.5534 N.pl3   1  UNL1       -0.3040
     22 C         143.2098  139.9215  165.8413 C.3     1  UNL1        0.1081
     23 C         144.1903  140.0578  164.7143 C.3     1  UNL1        0.0938
     24 C         141.7306  141.0075  167.6803 C.ar    1  UNL1        0.0594
     25 C         140.3769  140.4122  167.4288 C.ar    1  UNL1        0.0154
     26 C         139.3964  140.2759  168.5558 C.ar    1  UNL1        0.0022
     27 C         139.7696  140.7349  169.9343 C.ar    1  UNL1        0.0123
     28 C         141.1232  141.3302  170.1857 C.ar    1  UNL1        0.0694
     29 CL        141.4963  141.7892  171.5641 Cl      1  UNL1       -0.0813
     30 C         142.1037  141.4665  169.0588 C.ar    1  UNL1        0.0815
     31 CL        143.4573  142.0618  169.3102 Cl      1  UNL1       -0.0801
@<TRIPOS>BOND
     1     7     8    1
     2     8     9   ar
     3     9    10   ar
     4    10     3    1
     5     3     4    2
     6     3     5   am
     7     5     2    1
     8     2     1    1
     9     1    17    1
    10    17    18    1
    11    18    19    1
    12    19    20    1
    13    20    21    1
    14    21    24    1
    15    24    25   ar
    16    25    26   ar
    17    26    27   ar
    18    27    28   ar
    19    28    29    1
    20    28    30   ar
    21    30    31    1
    22    21    22    1
    23    22    23    1
    24    10    11   ar
    25    11    12   ar
    26    12    14    1
    27    14    15    1
    28    14    16    1
    29    12    13   ar
    30    13     8   ar
    31    23    18    1
    32    30    24   ar
    33     5     6    1
@<TRIPOS>MOLECULE
*****
 31 33 0 0 0
SMALL
GASTEIGER

@<TRIPOS>ATOM
      1 C         141.3306  137.8281  157.1665 C.3     1  UNL1        0.0386
      2 C         142.5585  137.4037  157.9163 C.3     1  UNL1        0.0912
      3 C         143.4992  138.9759  159.7584 C.2     1  UNL1        0.2637
      4 O         144.1302  139.8349  158.7030 O.2     1  UNL1       -0.2685
      5 N         142.7133  137.7603  159.3650 N.am    1  UNL1       -0.2996
      6 H         142.2991  137.1965  160.0577 H       1  UNL1        0.1498
      7 C         145.8278  141.7464  163.4868 C.3     1  UNL1        0.0736
      8 C         144.8183  140.7177  163.0714 C.ar    1  UNL1        0.1393
      9 N         144.6635  140.3611  161.6227 N.ar    1  UNL1       -0.2261
     10 C         143.6540  139.3324  161.2072 C.ar    1  UNL1        0.1369
     11 C         142.7993  138.6602  162.2405 C.ar    1  UNL1        0.0385
     12 C         142.9542  139.0168  163.6892 C.ar    1  UNL1        0.0616
     13 N         143.9637  140.0455  164.1046 N.ar    1  UNL1       -0.2350
     14 C         142.0995  138.3446  164.7225 C.3     1  UNL1        0.0404
     15 C         141.1860  137.2229  164.3260 C.3     1  UNL1        0.0063
     16 C         142.1583  138.7942  166.1524 C.3     1  UNL1        0.0063
     17 C         140.0281  137.9925  157.8922 C.3     1  UNL1        0.0739
     18 N         139.8546  139.1097  158.8780 N.3     1  UNL1       -0.2697
     19 C         140.1028  140.5276  158.4560 C.3     1  UNL1        0.0938
     20 C         139.9293  141.6448  159.4418 C.3     1  UNL1        0.1081
     21 N         139.5076  141.3441  160.8496 N.pl3   1  UNL1       -0.3040
     22 C         139.2594  139.9263  161.2715 C.3     1  UNL1        0.1081
     23 C         139.4329  138.8091  160.2857 C.3     1  UNL1        0.0938
     24 C         139.3341  142.4613  161.8354 C.ar    1  UNL1        0.0594
     25 C         137.9579  142.9401  162.1917 C.ar    1  UNL1        0.0154
     26 C         137.7844  144.0573  163.1775 C.ar    1  UNL1        0.0022
     27 C         138.9871  144.6957  163.8069 C.ar    1  UNL1        0.0123
     28 C         140.3632  144.2168  163.4506 C.ar    1  UNL1        0.0694
     29 CL        141.5658  144.8551  164.0800 Cl      1  UNL1       -0.0813
     30 C         140.5367  143.0996  162.4648 C.ar    1  UNL1        0.0815
     31 CL        141.9128  142.6207  162.1085 Cl      1  UNL1       -0.0801
@<TRIPOS>BOND
     1     7     8    1
     2     8     9   ar
     3     9    10   ar
     4    10     3    1
     5     3     4    2
     6     3     5   am
     7     5     2    1
     8     2     1    1
     9     1    17    1
    10    17    18    1
    11    18    19    1
    12    19    20    1
    13    20    21    1
    14    21    24    1
    15    24    25   ar
    16    25    26   ar
    17    26    27   ar
    18    27    28   ar
    19    28    29    1
    20    28    30   ar
    21    30    31    1
    22    21    22    1
    23    22    23    1
    24    10    11   ar
    25    11    12   ar
    26    12    14    1
    27    14    15    1
    28    14    16    1
    29    12    13   ar
    30    13     8   ar
    31    23    18    1
    32    30    24   ar
    33     5     6    1
@<TRIPOS>MOLECULE
*****
 31 33 0 0 0
SMALL
GASTEIGER

@<TRIPOS>ATOM
      1 C         139.1793  143.3877  157.2562 C.3     1  UNL1        0.0386
      2 C         138.2532  142.4933  158.0259 C.3     1  UNL1        0.0912
      3 C         138.2885  141.3328  160.3501 C.2     1  UNL1        0.2637
      4 O         138.4341  139.9981  159.6815 O.2     1  UNL1       -0.2685
      5 N         138.1980  142.5805  159.5223 N.am    1  UNL1       -0.2996
      6 H         138.1024  143.4565  159.9612 H       1  UNL1        0.1498
      7 C         137.7868  144.1657  164.6772 C.3     1  UNL1        0.0736
      8 C         137.9824  142.8365  164.0101 C.ar    1  UNL1        0.1393
      9 N         138.0376  142.7493  162.5137 N.ar    1  UNL1       -0.2261
     10 C         138.2333  141.4201  161.8466 C.ar    1  UNL1        0.1369
     11 C         138.3737  140.1781  162.6760 C.ar    1  UNL1        0.0385
     12 C         138.3185  140.2654  164.1724 C.ar    1  UNL1        0.0616
     13 N         138.1228  141.5946  164.8395 N.ar    1  UNL1       -0.2350
     14 C         138.4589  139.0234  165.0018 C.3     1  UNL1        0.0404
     15 C         139.0507  137.7831  164.4008 C.3     1  UNL1        0.0063
     16 C         138.0074  139.0219  166.4323 C.3     1  UNL1        0.0063
     17 C         140.6316  143.4591  157.6248 C.3     1  UNL1        0.0739
     18 N         141.0553  143.2478  159.0481 N.3     1  UNL1       -0.2697
     19 C         140.8222  144.3232  160.0676 C.3     1  UNL1        0.0938
     20 C         141.2459  144.1119  161.4909 C.3     1  UNL1        0.1081
     21 N         141.9028  142.8252  161.8947 N.pl3   1  UNL1       -0.3040
     22 C         142.1359  141.7499  160.8753 C.3     1  UNL1        0.1081
     23 C         141.7121  141.9612  159.4520 C.3     1  UNL1        0.0938
     24 C         142.3265  142.6139  163.3180 C.ar    1  UNL1        0.0594
     25 C         141.5970  141.6255  164.1789 C.ar    1  UNL1        0.0154
     26 C         142.0207  141.4142  165.6022 C.ar    1  UNL1        0.0022
     27 C         143.1740  142.1913  166.1646 C.ar    1  UNL1        0.0123
     28 C         143.9034  143.1795  165.3038 C.ar    1  UNL1        0.0694
     29 CL        145.0566  143.9565  165.8662 Cl      1  UNL1       -0.0813
     30 C         143.4797  143.3908  163.8805 C.ar    1  UNL1        0.0815
     31 CL        144.2092  144.3791  163.0196 Cl      1  UNL1       -0.0801
@<TRIPOS>BOND
     1     7     8    1
     2     8     9   ar
     3     9    10   ar
     4    10     3    1
     5     3     4    2
     6     3     5   am
     7     5     2    1
     8     2     1    1
     9     1    17    1
    10    17    18    1
    11    18    19    1
    12    19    20    1
    13    20    21    1
    14    21    24    1
    15    24    25   ar
    16    25    26   ar
    17    26    27   ar
    18    27    28   ar
    19    28    29    1
    20    28    30   ar
    21    30    31    1
    22    21    22    1
    23    22    23    1
    24    10    11   ar
    25    11    12   ar
    26    12    14    1
    27    14    15    1
    28    14    16    1
    29    12    13   ar
    30    13     8   ar
    31    23    18    1
    32    30    24   ar
    33     5     6    1
