@<TRIPOS>MOLECULE
*****
 34 38 0 0 0
SMALL
GASTEIGER

@<TRIPOS>ATOM
      1 C         139.8802  140.9832  162.4781 C.2     1  UNL1        0.0937
      2 N         138.4573  141.1976  162.0547 N.2     1  UNL1       -0.1518
      3 N         138.2570  140.5094  160.7370 N.2     1  UNL1       -0.1519
      4 C         139.5563  139.8697  160.3460 C.2     1  UNL1        0.0932
      5 C         140.5594  140.1625  161.4221 C.3     1  UNL1        0.1454
      6 C         141.8586  139.5228  161.0312 C.2     1  UNL1        0.1840
      7 O         143.1341  139.5640  161.8195 O.2     1  UNL1       -0.2905
      8 C         141.6584  138.8346  159.7135 C.ar    1  UNL1        0.0364
      9 C         142.5880  138.0404  158.8445 C.ar    1  UNL1       -0.0000
     10 C         142.0947  137.4607  157.5520 C.ar    1  UNL1       -0.0060
     11 C         140.6717  137.6751  157.1286 C.ar    1  UNL1       -0.0029
     12 C         139.7422  138.4692  157.9976 C.ar    1  UNL1        0.0011
     13 C         140.2355  139.0490  159.2900 C.ar    1  UNL1        0.0188
     14 C         140.8258  142.2446  166.0250 C.ar    1  UNL1        0.0710
     15 C         139.8157  141.7245  165.0455 C.ar    1  UNL1        0.0165
     16 C         140.5128  141.4989  163.7366 C.ar    1  UNL1        0.0237
     17 C         141.9537  141.8795  163.9071 C.ar    1  UNL1        0.0373
     18 S         142.1471  142.3404  165.3215 S.2     1  UNL1       -0.0780
     19 C         140.2962  142.9664  168.8882 C.1     1  UNL1       -0.0534
     20 C         140.5610  142.6055  167.4566 C.1     1  UNL1       -0.0554
     21 C         140.0314  143.3273  170.3199 C.3     1  UNL1        0.2182
     22 O         140.4153  142.3781  171.4160 O.3     1  UNL1       -0.3374
     23 C         140.8286  140.9752  171.0827 C.3     1  UNL1        0.1755
     24 C         142.2838  140.6265  170.9793 C.3     1  UNL1        0.1743
     25 C         143.8785  142.3082  169.8050 C.3     1  UNL1        0.1742
     26 O         143.0714  141.0443  169.7731 O.3     1  UNL1       -0.3484
     27 C         143.0242  136.6665  156.6830 C.3     1  UNL1        0.0992
     28 N         142.7973  135.1965  156.4891 N.3     1  UNL1       -0.2665
     29 C         143.5323  134.2052  157.3420 C.3     1  UNL1        0.0899
     30 C         143.3054  132.7352  157.1481 C.3     1  UNL1        0.0897
     31 N         142.3434  132.2565  156.1014 N.3     1  UNL1       -0.2691
     32 C         142.1165  130.7865  155.9075 C.3     1  UNL1        0.0897
     33 C         141.6085  133.2477  155.2486 C.3     1  UNL1        0.0897
     34 C         141.8354  134.7177  155.4425 C.3     1  UNL1        0.0899
@<TRIPOS>BOND
     1    25    26    1
     2    26    24    1
     3    24    23    1
     4    23    22    1
     5    22    21    1
     6    21    19    1
     7    19    20    3
     8    20    14    1
     9    14    15   ar
    10    15    16   ar
    11    16     1    1
    12     1     2    2
    13     2     3    1
    14     3     4    2
    15     4     5    1
    16     5     6    1
    17     6     7    2
    18     6     8    1
    19     8     9   ar
    20     9    10   ar
    21    10    27    1
    22    27    28    1
    23    28    29    1
    24    29    30    1
    25    30    31    1
    26    31    32    1
    27    31    33    1
    28    33    34    1
    29    10    11   ar
    30    11    12   ar
    31    12    13   ar
    32    16    17   ar
    33    17    18   ar
    34    18    14   ar
    35     5     1    1
    36    13     8   ar
    37    13     4    1
    38    34    28    1
@<TRIPOS>MOLECULE
*****
 34 38 0 0 0
SMALL
GASTEIGER

@<TRIPOS>ATOM
      1 C         143.5462  140.4342  162.6213 C.2     1  UNL1        0.0937
      2 N         144.3217  141.6638  162.2516 N.2     1  UNL1       -0.1518
      3 N         144.4491  141.6998  160.7574 N.2     1  UNL1       -0.1519
      4 C         143.7523  140.4923  160.2037 C.2     1  UNL1        0.0932
      5 C         143.1943  139.7102  161.3556 C.3     1  UNL1        0.1454
      6 C         142.4976  138.5027  160.8018 C.2     1  UNL1        0.1840
      7 O         141.7965  137.4451  161.6017 O.2     1  UNL1       -0.2905
      8 C         142.6250  138.5386  159.3077 C.ar    1  UNL1        0.0364
      9 C         142.1350  137.6105  158.2360 C.ar    1  UNL1       -0.0000
     10 C         142.4205  137.9120  156.7947 C.ar    1  UNL1       -0.0060
     11 C         143.1960  139.1416  156.4250 C.ar    1  UNL1       -0.0029
     12 C         143.6860  140.0697  157.4966 C.ar    1  UNL1        0.0011
     13 C         143.4004  139.7682  158.9380 C.ar    1  UNL1        0.0188
     14 C         142.0200  139.7760  166.1288 C.ar    1  UNL1        0.0710
     15 C         141.9848  140.4531  164.7908 C.ar    1  UNL1        0.0165
     16 C         143.1858  140.0041  164.0124 C.ar    1  UNL1        0.0237
     17 C         143.9633  139.0494  164.8693 C.ar    1  UNL1        0.0373
     18 S         143.2427  138.9084  166.1774 S.2     1  UNL1       -0.0780
     19 C         139.9996  140.0999  168.3226 C.1     1  UNL1       -0.0534
     20 C         141.0098  139.9379  167.2258 C.1     1  UNL1       -0.0554
     21 C         138.9893  140.2619  169.4195 C.3     1  UNL1        0.2182
     22 O         139.4368  140.3102  170.8503 O.3     1  UNL1       -0.3374
     23 C         140.8870  140.5128  171.1762 C.3     1  UNL1        0.1755
     24 C         141.4733  141.8933  171.1610 C.3     1  UNL1        0.1743
     25 C         140.4675  143.8033  169.7152 C.3     1  UNL1        0.1742
     26 O         140.5760  143.0880  171.0292 O.3     1  UNL1       -0.3484
     27 C         141.9306  136.9839  155.7229 C.3     1  UNL1        0.0992
     28 N         142.1302  135.5039  155.8636 N.3     1  UNL1       -0.2665
     29 C         143.2340  134.9751  156.7309 C.3     1  UNL1        0.0899
     30 C         143.4336  133.4951  156.8717 C.3     1  UNL1        0.0897
     31 N         142.5295  132.5439  156.1451 N.3     1  UNL1       -0.2691
     32 C         142.7291  131.0639  156.2858 C.3     1  UNL1        0.0897
     33 C         141.4258  133.0727  155.2778 C.3     1  UNL1        0.0897
     34 C         141.2262  134.5527  155.1371 C.3     1  UNL1        0.0899
@<TRIPOS>BOND
     1    25    26    1
     2    26    24    1
     3    24    23    1
     4    23    22    1
     5    22    21    1
     6    21    19    1
     7    19    20    3
     8    20    14    1
     9    14    15   ar
    10    15    16   ar
    11    16     1    1
    12     1     2    2
    13     2     3    1
    14     3     4    2
    15     4     5    1
    16     5     6    1
    17     6     7    2
    18     6     8    1
    19     8     9   ar
    20     9    10   ar
    21    10    27    1
    22    27    28    1
    23    28    29    1
    24    29    30    1
    25    30    31    1
    26    31    32    1
    27    31    33    1
    28    33    34    1
    29    10    11   ar
    30    11    12   ar
    31    12    13   ar
    32    16    17   ar
    33    17    18   ar
    34    18    14   ar
    35     5     1    1
    36    13     8   ar
    37    13     4    1
    38    34    28    1
@<TRIPOS>MOLECULE
*****
 34 38 0 0 0
SMALL
GASTEIGER

@<TRIPOS>ATOM
      1 C         139.7414  139.1545  158.9263 C.2     1  UNL1        0.0937
      2 N         138.7835  140.1945  158.4255 N.2     1  UNL1       -0.1518
      3 N         138.1052  140.8104  159.6133 N.2     1  UNL1       -0.1519
      4 C         138.6440  140.1509  160.8482 C.2     1  UNL1        0.0932
      5 C         139.6552  139.1275  160.4236 C.3     1  UNL1        0.1454
      6 C         140.1938  138.4681  161.6585 C.2     1  UNL1        0.1840
      7 O         141.2290  137.3833  161.6985 O.2     1  UNL1       -0.2905
      8 C         139.5156  139.0838  162.8463 C.ar    1  UNL1        0.0364
      9 C         139.6466  138.8319  164.3191 C.ar    1  UNL1       -0.0000
     10 C         138.8196  139.6200  165.2912 C.ar    1  UNL1       -0.0060
     11 C         137.8617  140.6600  164.7904 C.ar    1  UNL1       -0.0029
     12 C         137.7308  140.9120  163.3175 C.ar    1  UNL1        0.0011
     13 C         138.5578  140.1239  162.3455 C.ar    1  UNL1        0.0188
     14 C         141.3950  136.7041  156.4111 C.ar    1  UNL1        0.0710
     15 C         140.1786  137.3614  156.9927 C.ar    1  UNL1        0.0165
     16 C         140.6296  138.2927  158.0787 C.ar    1  UNL1        0.0237
     17 C         142.1247  138.2110  158.1682 C.ar    1  UNL1        0.0373
     18 S         142.5977  137.2291  157.1375 S.2     1  UNL1       -0.0780
     19 C         141.4182  134.6925  154.1856 C.1     1  UNL1       -0.0534
     20 C         141.4066  135.6983  155.2983 C.1     1  UNL1       -0.0554
     21 C         141.4297  133.6867  153.0728 C.3     1  UNL1        0.2182
     22 O         141.2248  132.2318  153.3746 O.3     1  UNL1       -0.3374
     23 C         141.1227  131.7681  154.7975 C.3     1  UNL1        0.1755
     24 C         142.3638  131.6047  155.6238 C.3     1  UNL1        0.1743
     25 C         143.5293  133.2745  157.2373 C.3     1  UNL1        0.1742
     26 O         142.4594  132.2575  156.9709 O.3     1  UNL1       -0.3484
     27 C         138.9505  139.3681  166.7641 C.3     1  UNL1        0.0992
     28 N         139.7554  140.3039  167.6164 N.3     1  UNL1       -0.2665
     29 C         139.5146  140.3658  169.0957 C.3     1  UNL1        0.0899
     30 C         140.3196  141.3016  169.9480 C.3     1  UNL1        0.0897
     31 N         141.3653  142.1754  169.3210 N.3     1  UNL1       -0.2691
     32 C         142.1702  143.1112  170.1733 C.3     1  UNL1        0.0897
     33 C         141.6060  142.1134  167.8418 C.3     1  UNL1        0.0897
     34 C         140.8011  141.1776  166.9895 C.3     1  UNL1        0.0899
@<TRIPOS>BOND
     1    25    26    1
     2    26    24    1
     3    24    23    1
     4    23    22    1
     5    22    21    1
     6    21    19    1
     7    19    20    3
     8    20    14    1
     9    14    15   ar
    10    15    16   ar
    11    16     1    1
    12     1     2    2
    13     2     3    1
    14     3     4    2
    15     4     5    1
    16     5     6    1
    17     6     7    2
    18     6     8    1
    19     8     9   ar
    20     9    10   ar
    21    10    27    1
    22    27    28    1
    23    28    29    1
    24    29    30    1
    25    30    31    1
    26    31    32    1
    27    31    33    1
    28    33    34    1
    29    10    11   ar
    30    11    12   ar
    31    12    13   ar
    32    16    17   ar
    33    17    18   ar
    34    18    14   ar
    35     5     1    1
    36    13     8   ar
    37    13     4    1
    38    34    28    1
@<TRIPOS>MOLECULE
*****
 34 38 0 0 0
SMALL
GASTEIGER

@<TRIPOS>ATOM
      1 C         138.9974  140.4759  162.2216 C.2     1  UNL1        0.0937
      2 N         138.3217  141.7524  161.8165 N.2     1  UNL1       -0.1518
      3 N         138.5632  141.9599  160.3507 N.2     1  UNL1       -0.1519
      4 C         139.3884  140.8117  159.8498 C.2     1  UNL1        0.0932
      5 C         139.6567  139.8946  161.0061 C.3     1  UNL1        0.1454
      6 C         140.4818  138.7464  160.5052 C.2     1  UNL1        0.1840
      7 O         140.9782  137.5932  161.3260 O.2     1  UNL1       -0.2905
      8 C         140.7234  138.9539  159.0394 C.ar    1  UNL1        0.0364
      9 C         141.4715  138.1455  158.0212 C.ar    1  UNL1       -0.0000
     10 C         141.5438  138.6134  156.5979 C.ar    1  UNL1       -0.0060
     11 C         140.8680  139.8899  156.1929 C.ar    1  UNL1       -0.0029
     12 C         140.1199  140.6983  157.2111 C.ar    1  UNL1        0.0011
     13 C         140.0477  140.2303  158.6343 C.ar    1  UNL1        0.0188
     14 C         139.2225  139.6424  166.0057 C.ar    1  UNL1        0.0710
     15 C         139.3262  140.6174  164.8705 C.ar    1  UNL1        0.0165
     16 C         139.0115  139.8847  163.6001 C.ar    1  UNL1        0.0237
     17 C         138.7133  138.4568  163.9500 C.ar    1  UNL1        0.0373
     18 S         138.8437  138.3071  165.4369 S.2     1  UNL1       -0.0780
     19 C         139.6905  140.2554  168.9048 C.1     1  UNL1       -0.0534
     20 C         139.4565  139.9489  167.4553 C.1     1  UNL1       -0.0554
     21 C         139.9246  140.5618  170.3544 C.3     1  UNL1        0.2182
     22 O         141.3245  140.6510  170.8857 O.3     1  UNL1       -0.3374
     23 C         142.4345  141.1302  169.9979 C.3     1  UNL1        0.1755
     24 C         142.6647  142.6008  169.8122 C.3     1  UNL1        0.1743
     25 C         140.4781  144.0018  169.8910 C.3     1  UNL1        0.1742
     26 O         141.7816  143.5922  170.5101 O.3     1  UNL1       -0.3484
     27 C         142.2918  137.8050  155.5796 C.3     1  UNL1        0.0992
     28 N         142.3744  136.3138  155.7194 N.3     1  UNL1       -0.2665
     29 C         143.5632  135.6877  156.3865 C.3     1  UNL1        0.0899
     30 C         143.6458  134.1966  156.5263 C.3     1  UNL1        0.0897
     31 N         142.5396  133.3314  155.9990 N.3     1  UNL1       -0.2691
     32 C         142.6222  131.8402  156.1387 C.3     1  UNL1        0.0897
     33 C         141.3509  133.9575  155.3319 C.3     1  UNL1        0.0897
     34 C         141.2683  135.4487  155.1921 C.3     1  UNL1        0.0899
@<TRIPOS>BOND
     1    25    26    1
     2    26    24    1
     3    24    23    1
     4    23    22    1
     5    22    21    1
     6    21    19    1
     7    19    20    3
     8    20    14    1
     9    14    15   ar
    10    15    16   ar
    11    16     1    1
    12     1     2    2
    13     2     3    1
    14     3     4    2
    15     4     5    1
    16     5     6    1
    17     6     7    2
    18     6     8    1
    19     8     9   ar
    20     9    10   ar
    21    10    27    1
    22    27    28    1
    23    28    29    1
    24    29    30    1
    25    30    31    1
    26    31    32    1
    27    31    33    1
    28    33    34    1
    29    10    11   ar
    30    11    12   ar
    31    12    13   ar
    32    16    17   ar
    33    17    18   ar
    34    18    14   ar
    35     5     1    1
    36    13     8   ar
    37    13     4    1
    38    34    28    1
@<TRIPOS>MOLECULE
*****
 34 38 0 0 0
SMALL
GASTEIGER

@<TRIPOS>ATOM
      1 C         138.4697  140.1790  159.1023 C.2     1  UNL1        0.0937
      2 N         137.5603  140.5982  157.9855 N.2     1  UNL1       -0.1518
      3 N         138.0605  139.9687  156.7192 N.2     1  UNL1       -0.1519
      4 C         139.2791  139.1602  157.0535 C.2     1  UNL1        0.0932
      5 C         139.5320  139.2902  158.5263 C.3     1  UNL1        0.1454
      6 C         140.7505  138.4818  158.8604 C.2     1  UNL1        0.1840
      7 O         141.3615  138.3297  160.2219 O.2     1  UNL1       -0.2905
      8 C         141.2507  137.8522  157.5942 C.ar    1  UNL1        0.0364
      9 C         142.4168  136.9513  157.3138 C.ar    1  UNL1       -0.0000
     10 C         142.6734  136.4697  155.9166 C.ar    1  UNL1       -0.0060
     11 C         141.7640  136.8890  154.7999 C.ar    1  UNL1       -0.0029
     12 C         140.5980  137.7899  155.0802 C.ar    1  UNL1        0.0011
     13 C         140.3413  138.2715  156.4774 C.ar    1  UNL1        0.0188
     14 C         138.1703  140.4714  162.9611 C.ar    1  UNL1        0.0710
     15 C         138.3128  139.6457  161.7169 C.ar    1  UNL1        0.0165
     16 C         138.3397  140.5783  160.5423 C.ar    1  UNL1        0.0237
     17 C         138.2138  141.9803  161.0605 C.ar    1  UNL1        0.0373
     18 S         138.1091  141.9142  162.5555 S.2     1  UNL1       -0.0780
     19 C         138.0319  139.4215  165.7679 C.1     1  UNL1       -0.0534
     20 C         138.1011  139.9464  164.3645 C.1     1  UNL1       -0.0554
     21 C         137.9627  138.8965  167.1713 C.3     1  UNL1        0.2182
     22 O         138.8897  139.4353  168.2203 O.3     1  UNL1       -0.3374
     23 C         139.9274  140.4541  167.8524 C.3     1  UNL1        0.1755
     24 C         141.3218  140.0163  167.5150 C.3     1  UNL1        0.1743
     25 C         141.8050  139.8628  164.9669 C.3     1  UNL1        0.1742
     26 O         141.5727  139.1911  166.2878 O.3     1  UNL1       -0.3484
     27 C         143.8395  135.5687  155.6362 C.3     1  UNL1        0.0992
     28 N         143.7115  134.0890  155.8462 N.3     1  UNL1       -0.2665
     29 C         143.0920  133.2314  154.7828 C.3     1  UNL1        0.0899
     30 C         142.9640  131.7517  154.9928 C.3     1  UNL1        0.0897
     31 N         143.4555  131.1296  156.2662 N.3     1  UNL1       -0.2691
     32 C         143.3275  129.6499  156.4762 C.3     1  UNL1        0.0897
     33 C         144.0750  131.9872  157.3295 C.3     1  UNL1        0.0897
     34 C         144.2030  133.4669  157.1195 C.3     1  UNL1        0.0899
@<TRIPOS>BOND
     1    25    26    1
     2    26    24    1
     3    24    23    1
     4    23    22    1
     5    22    21    1
     6    21    19    1
     7    19    20    3
     8    20    14    1
     9    14    15   ar
    10    15    16   ar
    11    16     1    1
    12     1     2    2
    13     2     3    1
    14     3     4    2
    15     4     5    1
    16     5     6    1
    17     6     7    2
    18     6     8    1
    19     8     9   ar
    20     9    10   ar
    21    10    27    1
    22    27    28    1
    23    28    29    1
    24    29    30    1
    25    30    31    1
    26    31    32    1
    27    31    33    1
    28    33    34    1
    29    10    11   ar
    30    11    12   ar
    31    12    13   ar
    32    16    17   ar
    33    17    18   ar
    34    18    14   ar
    35     5     1    1
    36    13     8   ar
    37    13     4    1
    38    34    28    1
@<TRIPOS>MOLECULE
*****
 34 38 0 0 0
SMALL
GASTEIGER

@<TRIPOS>ATOM
      1 C         142.5149  142.4786  162.5833 C.2     1  UNL1        0.0937
      2 N         143.8703  143.1098  162.4631 N.2     1  UNL1       -0.1518
      3 N         144.4805  142.6553  161.1704 N.2     1  UNL1       -0.1519
      4 C         143.5021  141.7430  160.4916 C.2     1  UNL1        0.0932
      5 C         142.2873  141.6339  161.3648 C.3     1  UNL1        0.1454
      6 C         141.3090  140.7217  160.6860 C.2     1  UNL1        0.1840
      7 O         139.9578  140.3325  161.2082 O.2     1  UNL1       -0.2905
      8 C         141.9191  140.2671  159.3932 C.ar    1  UNL1        0.0364
      9 C         141.4155  139.3600  158.3100 C.ar    1  UNL1       -0.0000
     10 C         142.2674  139.0840  157.1066 C.ar    1  UNL1       -0.0060
     11 C         143.6228  139.7152  156.9865 C.ar    1  UNL1       -0.0029
     12 C         144.1263  140.6224  158.0697 C.ar    1  UNL1        0.0011
     13 C         143.2745  140.8983  159.2731 C.ar    1  UNL1        0.0188
     14 C         140.6348  142.8149  165.9622 C.ar    1  UNL1        0.0710
     15 C         141.8906  142.5650  165.1809 C.ar    1  UNL1        0.0165
     16 C         141.5555  142.6602  163.7220 C.ar    1  UNL1        0.0237
     17 C         140.0925  142.9688  163.6015 C.ar    1  UNL1        0.0373
     18 S         139.5235  143.0644  164.9861 S.2     1  UNL1       -0.0780
     19 C         140.3888  142.8153  168.9520 C.1     1  UNL1       -0.0534
     20 C         140.5118  142.8151  167.4572 C.1     1  UNL1       -0.0554
     21 C         140.2657  142.8156  170.4470 C.3     1  UNL1        0.2182
     22 O         140.3123  141.5212  171.2037 O.3     1  UNL1       -0.3374
     23 C         140.9178  140.3037  170.5705 C.3     1  UNL1        0.1755
     24 C         142.4083  140.1385  170.5368 C.3     1  UNL1        0.1743
     25 C         142.4324  139.6390  167.9873 C.3     1  UNL1        0.1742
     26 O         143.0673  139.5178  169.3408 O.3     1  UNL1       -0.3484
     27 C         141.7638  138.1768  156.0233 C.3     1  UNL1        0.0992
     28 N         141.9914  136.6972  156.1181 N.3     1  UNL1       -0.2665
     29 C         141.2155  135.7612  155.2395 C.3     1  UNL1        0.0899
     30 C         141.4431  134.2816  155.3343 C.3     1  UNL1        0.0897
     31 N         142.4467  133.7380  156.3076 N.3     1  UNL1       -0.2691
     32 C         142.6744  132.2584  156.4024 C.3     1  UNL1        0.0897
     33 C         143.2226  134.6740  157.1861 C.3     1  UNL1        0.0897
     34 C         142.9950  136.1536  157.0914 C.3     1  UNL1        0.0899
@<TRIPOS>BOND
     1    25    26    1
     2    26    24    1
     3    24    23    1
     4    23    22    1
     5    22    21    1
     6    21    19    1
     7    19    20    3
     8    20    14    1
     9    14    15   ar
    10    15    16   ar
    11    16     1    1
    12     1     2    2
    13     2     3    1
    14     3     4    2
    15     4     5    1
    16     5     6    1
    17     6     7    2
    18     6     8    1
    19     8     9   ar
    20     9    10   ar
    21    10    27    1
    22    27    28    1
    23    28    29    1
    24    29    30    1
    25    30    31    1
    26    31    32    1
    27    31    33    1
    28    33    34    1
    29    10    11   ar
    30    11    12   ar
    31    12    13   ar
    32    16    17   ar
    33    17    18   ar
    34    18    14   ar
    35     5     1    1
    36    13     8   ar
    37    13     4    1
    38    34    28    1
@<TRIPOS>MOLECULE
*****
 34 38 0 0 0
SMALL
GASTEIGER

@<TRIPOS>ATOM
      1 C         143.1044  139.6751  158.5986 C.2     1  UNL1        0.0937
      2 N         143.8154  140.9669  158.3237 N.2     1  UNL1       -0.1518
      3 N         144.2963  141.5191  159.6329 N.2     1  UNL1       -0.1519
      4 C         143.8825  140.5684  160.7169 C.2     1  UNL1        0.0932
      5 C         143.1459  139.4288  160.0777 C.3     1  UNL1        0.1454
      6 C         142.7321  138.4782  161.1617 C.2     1  UNL1        0.1840
      7 O         141.9711  137.1998  160.9702 O.2     1  UNL1       -0.2905
      8 C         143.2129  139.0303  162.4709 C.ar    1  UNL1        0.0364
      9 C         143.0952  138.5236  163.8778 C.ar    1  UNL1       -0.0000
     10 C         143.6885  139.3088  165.0097 C.ar    1  UNL1       -0.0060
     11 C         144.3994  140.6007  164.7349 C.ar    1  UNL1       -0.0029
     12 C         144.5172  141.1074  163.3280 C.ar    1  UNL1        0.0011
     13 C         143.9239  140.3222  162.1960 C.ar    1  UNL1        0.0188
     14 C         141.8008  136.8188  156.3166 C.ar    1  UNL1        0.0710
     15 C         142.6081  137.2950  157.4877 C.ar    1  UNL1        0.0165
     16 C         142.4644  138.7856  157.5743 C.ar    1  UNL1        0.0237
     17 C         141.5683  139.2307  156.4567 C.ar    1  UNL1        0.0373
     18 S         141.1581  138.0151  155.6794 S.2     1  UNL1       -0.0780
     19 C         141.5207  133.9735  155.4082 C.1     1  UNL1       -0.0534
     20 C         141.6607  135.3961  155.8624 C.1     1  UNL1       -0.0554
     21 C         141.3808  132.5507  154.9541 C.3     1  UNL1        0.2182
     22 O         142.4509  131.5510  155.2786 O.3     1  UNL1       -0.3374
     23 C         143.8916  131.9685  155.2805 C.3     1  UNL1        0.1755
     24 C         144.8938  131.2012  156.0909 C.3     1  UNL1        0.1743
     25 C         144.9873  132.8427  158.1026 C.3     1  UNL1        0.1742
     26 O         145.0069  131.4417  157.5671 O.3     1  UNL1       -0.3484
     27 C         143.5708  138.8021  166.4167 C.3     1  UNL1        0.0992
     28 N         142.4274  139.2457  167.2804 N.3     1  UNL1       -0.2665
     29 C         142.5899  139.2991  168.7707 C.3     1  UNL1        0.0899
     30 C         141.4466  139.7427  169.6344 C.3     1  UNL1        0.0897
     31 N         140.1407  140.1329  169.0078 N.3     1  UNL1       -0.2691
     32 C         138.9973  140.5765  169.8715 C.3     1  UNL1        0.0897
     33 C         139.9782  140.0794  167.5176 C.3     1  UNL1        0.0897
     34 C         141.1216  139.6358  166.6539 C.3     1  UNL1        0.0899
@<TRIPOS>BOND
     1    25    26    1
     2    26    24    1
     3    24    23    1
     4    23    22    1
     5    22    21    1
     6    21    19    1
     7    19    20    3
     8    20    14    1
     9    14    15   ar
    10    15    16   ar
    11    16     1    1
    12     1     2    2
    13     2     3    1
    14     3     4    2
    15     4     5    1
    16     5     6    1
    17     6     7    2
    18     6     8    1
    19     8     9   ar
    20     9    10   ar
    21    10    27    1
    22    27    28    1
    23    28    29    1
    24    29    30    1
    25    30    31    1
    26    31    32    1
    27    31    33    1
    28    33    34    1
    29    10    11   ar
    30    11    12   ar
    31    12    13   ar
    32    16    17   ar
    33    17    18   ar
    34    18    14   ar
    35     5     1    1
    36    13     8   ar
    37    13     4    1
    38    34    28    1
@<TRIPOS>MOLECULE
*****
 34 38 0 0 0
SMALL
GASTEIGER

@<TRIPOS>ATOM
      1 C         143.7226  142.1176  159.5187 C.2     1  UNL1        0.0937
      2 N         144.7041  142.7919  158.6065 N.2     1  UNL1       -0.1518
      3 N         144.9078  141.9093  157.4109 N.2     1  UNL1       -0.1519
      4 C         144.0521  140.6894  157.5842 C.2     1  UNL1        0.0932
      5 C         143.3197  140.8182  158.8869 C.3     1  UNL1        0.1454
      6 C         142.4642  139.5984  159.0602 C.2     1  UNL1        0.1840
      7 O         141.5631  139.3116  160.2246 O.2     1  UNL1       -0.2905
      8 C         142.6678  138.7157  157.8646 C.ar    1  UNL1        0.0364
      9 C         142.0863  137.3851  157.4887 C.ar    1  UNL1       -0.0000
     10 C         142.4863  136.7288  156.2006 C.ar    1  UNL1       -0.0060
     11 C         143.4678  137.4031  155.2884 C.ar    1  UNL1       -0.0029
     12 C         144.0492  138.7337  155.6643 C.ar    1  UNL1        0.0011
     13 C         143.6492  139.3900  156.9524 C.ar    1  UNL1        0.0188
     14 C         142.7607  142.8698  163.2031 C.ar    1  UNL1        0.0710
     15 C         143.4065  141.9945  162.1701 C.ar    1  UNL1        0.0165
     16 C         143.2305  142.6494  160.8321 C.ar    1  UNL1        0.0237
     17 C         142.4760  143.9294  161.0381 C.ar    1  UNL1        0.0373
     18 S         142.1856  144.0656  162.5035 S.2     1  UNL1       -0.0780
     19 C         142.6404  142.3244  166.1505 C.1     1  UNL1       -0.0534
     20 C         142.7006  142.5971  164.6768 C.1     1  UNL1       -0.0554
     21 C         142.5803  142.0517  167.6243 C.3     1  UNL1        0.2182
     22 O         143.6104  142.6444  168.5395 O.3     1  UNL1       -0.3374
     23 C         143.3490  142.7192  170.0146 C.3     1  UNL1        0.1755
     24 C         142.1735  141.9987  170.6055 C.3     1  UNL1        0.1743
     25 C         140.5463  143.9199  169.9642 C.3     1  UNL1        0.1742
     26 O         140.8734  142.7202  170.8030 O.3     1  UNL1       -0.3484
     27 C         141.9048  135.3981  155.8247 C.3     1  UNL1        0.0992
     28 N         142.5549  134.1336  156.3026 N.3     1  UNL1       -0.2665
     29 C         143.7331  134.1996  157.2286 C.3     1  UNL1        0.0899
     30 C         144.3832  132.9351  157.7066 C.3     1  UNL1        0.0897
     31 N         143.8551  131.6046  157.2584 N.3     1  UNL1       -0.2691
     32 C         144.5051  130.3400  157.7364 C.3     1  UNL1        0.0897
     33 C         142.6769  131.5386  156.3324 C.3     1  UNL1        0.0897
     34 C         142.0268  132.8031  155.8545 C.3     1  UNL1        0.0899
@<TRIPOS>BOND
     1    25    26    1
     2    26    24    1
     3    24    23    1
     4    23    22    1
     5    22    21    1
     6    21    19    1
     7    19    20    3
     8    20    14    1
     9    14    15   ar
    10    15    16   ar
    11    16     1    1
    12     1     2    2
    13     2     3    1
    14     3     4    2
    15     4     5    1
    16     5     6    1
    17     6     7    2
    18     6     8    1
    19     8     9   ar
    20     9    10   ar
    21    10    27    1
    22    27    28    1
    23    28    29    1
    24    29    30    1
    25    30    31    1
    26    31    32    1
    27    31    33    1
    28    33    34    1
    29    10    11   ar
    30    11    12   ar
    31    12    13   ar
    32    16    17   ar
    33    17    18   ar
    34    18    14   ar
    35     5     1    1
    36    13     8   ar
    37    13     4    1
    38    34    28    1
@<TRIPOS>MOLECULE
*****
 34 38 0 0 0
SMALL
GASTEIGER

@<TRIPOS>ATOM
      1 C         143.1848  143.2933  160.5491 C.2     1  UNL1        0.0937
      2 N         144.2323  142.5995  159.7298 N.2     1  UNL1       -0.1518
      3 N         144.0084  142.9586  158.2907 N.2     1  UNL1       -0.1519
      4 C         142.8224  143.8744  158.2207 C.2     1  UNL1        0.0932
      5 C         142.3134  144.0812  159.6164 C.3     1  UNL1        0.1454
      6 C         141.1274  144.9969  159.5463 C.2     1  UNL1        0.1840
      7 O         140.3090  145.4703  160.7108 O.2     1  UNL1       -0.2905
      8 C         140.9034  145.3560  158.1073 C.ar    1  UNL1        0.0364
      9 C         139.8809  146.2251  157.4371 C.ar    1  UNL1       -0.0000
     10 C         139.9060  146.4004  155.9476 C.ar    1  UNL1       -0.0060
     11 C         140.9536  145.7067  155.1283 C.ar    1  UNL1       -0.0029
     12 C         141.9761  144.8376  155.7985 C.ar    1  UNL1        0.0011
     13 C         141.9510  144.6623  157.2880 C.ar    1  UNL1        0.0188
     14 C         142.2397  142.6034  164.2500 C.ar    1  UNL1        0.0710
     15 C         142.0332  142.3787  162.7813 C.ar    1  UNL1        0.0165
     16 C         143.0349  143.2132  162.0395 C.ar    1  UNL1        0.0237
     17 C         143.8603  143.9537  163.0496 C.ar    1  UNL1        0.0373
     18 S         143.3688  143.5768  164.4158 S.2     1  UNL1       -0.0780
     19 C         140.6697  141.3296  166.4663 C.1     1  UNL1       -0.0534
     20 C         141.4547  141.9665  165.3582 C.1     1  UNL1       -0.0554
     21 C         139.8847  140.6926  167.5745 C.3     1  UNL1        0.2182
     22 O         140.5987  140.0598  168.7319 O.3     1  UNL1       -0.3374
     23 C         140.2836  140.4904  170.1338 C.3     1  UNL1        0.1755
     24 C         140.2595  141.9490  170.4829 C.3     1  UNL1        0.1743
     25 C         142.6474  142.9644  170.3527 C.3     1  UNL1        0.1742
     26 O         141.4421  142.5783  171.1577 O.3     1  UNL1       -0.3484
     27 C         138.8835  147.2696  155.2774 C.3     1  UNL1        0.0992
     28 N         139.2138  148.6938  154.9419 N.3     1  UNL1       -0.2665
     29 C         138.5835  149.8125  155.7174 C.3     1  UNL1        0.0899
     30 C         138.9138  151.2367  155.3819 C.3     1  UNL1        0.0897
     31 N         139.8743  151.5422  154.2709 N.3     1  UNL1       -0.2691
     32 C         140.2045  152.9664  153.9354 C.3     1  UNL1        0.0897
     33 C         140.5045  150.4235  153.4955 C.3     1  UNL1        0.0897
     34 C         140.1742  148.9993  153.8310 C.3     1  UNL1        0.0899
@<TRIPOS>BOND
     1    25    26    1
     2    26    24    1
     3    24    23    1
     4    23    22    1
     5    22    21    1
     6    21    19    1
     7    19    20    3
     8    20    14    1
     9    14    15   ar
    10    15    16   ar
    11    16     1    1
    12     1     2    2
    13     2     3    1
    14     3     4    2
    15     4     5    1
    16     5     6    1
    17     6     7    2
    18     6     8    1
    19     8     9   ar
    20     9    10   ar
    21    10    27    1
    22    27    28    1
    23    28    29    1
    24    29    30    1
    25    30    31    1
    26    31    32    1
    27    31    33    1
    28    33    34    1
    29    10    11   ar
    30    11    12   ar
    31    12    13   ar
    32    16    17   ar
    33    17    18   ar
    34    18    14   ar
    35     5     1    1
    36    13     8   ar
    37    13     4    1
    38    34    28    1
