@<TRIPOS>MOLECULE
*****
 23 25 0 0 0
SMALL
GASTEIGER

@<TRIPOS>ATOM
      1 C         141.4945  139.7503  166.2609 C.2     1  UNL1        0.2494
      2 O         142.4722  139.4620  167.3612 O.2     1  UNL1       -0.2699
      3 N         140.3566  140.6985  166.4979 N.am    1  UNL1       -0.2779
      4 C         142.4877  139.7426  163.8601 C.ar    1  UNL1        0.0296
      5 C         142.6479  139.0827  162.5226 C.ar    1  UNL1        0.0063
      6 C         141.9748  137.7706  162.2484 C.ar    1  UNL1        0.0005
      7 C         141.1416  137.1184  163.3115 C.ar    1  UNL1        0.0002
      8 C         140.9815  137.7783  164.6490 C.ar    1  UNL1        0.0050
      9 C         141.6546  139.0904  164.9233 C.ar    1  UNL1        0.0592
     10 C         144.6326  141.0973  164.4210 C.3     1  UNL1        0.0742
     11 S         143.1609  141.0548  164.1345 S.3     1  UNL1       -0.1126
     12 C         140.1965  141.3584  167.8354 C.3     1  UNL1        0.0756
     13 C         140.6382  142.7788  168.0286 C.3     1  UNL1        0.0198
     14 C         140.4780  143.4387  169.3661 C.3     1  UNL1        0.0017
     15 C         139.8762  142.6783  170.5104 C.3     1  UNL1        0.0001
     16 C         139.4345  141.2578  170.3172 C.3     1  UNL1        0.0017
     17 C         139.5946  140.5979  168.9797 C.3     1  UNL1        0.0198
     18 C         139.3788  140.9867  165.3975 C.3     1  UNL1        0.0926
     19 C         139.4607  142.1217  164.4202 C.3     1  UNL1        0.0383
     20 C         138.2800  142.0270  163.4998 C.3     1  UNL1        0.0704
     21 N         137.4684  140.8335  163.9083 N.3     1  UNL1       -0.2960
     22 C         138.1475  140.1906  165.0811 C.3     1  UNL1        0.0887
     23 H         137.4131  140.1712  163.1346 H       1  UNL1        0.1233
@<TRIPOS>BOND
     1    10    11    1
     2    11     4    1
     3     4     5   ar
     4     5     6   ar
     5     6     7   ar
     6     7     8   ar
     7     8     9   ar
     8     9     1    1
     9     1     2    2
    10     1     3   am
    11     3    12    1
    12    12    13    1
    13    13    14    1
    14    14    15    1
    15    15    16    1
    16    16    17    1
    17    18     3    1
    18    18    19    1
    19    19    20    1
    20    20    21    1
    21    21    22    1
    22     9     4   ar
    23    17    12    1
    24    22    18    1
    25    21    23    1
@<TRIPOS>MOLECULE
*****
 23 25 0 0 0
SMALL
GASTEIGER

@<TRIPOS>ATOM
      1 C         140.3510  140.7497  164.3903 C.2     1  UNL1        0.2494
      2 O         139.6822  141.6958  163.4378 O.2     1  UNL1       -0.2699
      3 N         141.8083  140.9100  164.7075 N.am    1  UNL1       -0.2779
      4 C         139.5146  138.2899  164.3804 C.ar    1  UNL1        0.0296
      5 C         138.7262  137.1833  165.0158 C.ar    1  UNL1        0.0063
      6 C         137.9855  137.4299  166.2966 C.ar    1  UNL1        0.0005
      7 C         138.0334  138.7831  166.9421 C.ar    1  UNL1        0.0002
      8 C         138.8218  139.8897  166.3067 C.ar    1  UNL1        0.0050
      9 C         139.5624  139.6431  165.0258 C.ar    1  UNL1        0.0592
     10 C         139.5127  138.0194  161.7964 C.3     1  UNL1        0.0742
     11 S         140.2553  138.0433  163.0995 S.3     1  UNL1       -0.1126
     12 C         142.5968  142.0165  164.0721 C.3     1  UNL1        0.0756
     13 C         142.5115  143.4096  164.6217 C.3     1  UNL1        0.0198
     14 C         143.3001  144.5161  163.9862 C.3     1  UNL1        0.0017
     15 C         144.1739  144.2296  162.8012 C.3     1  UNL1        0.0001
     16 C         144.2591  142.8365  162.2515 C.3     1  UNL1        0.0017
     17 C         143.4706  141.7300  162.8869 C.3     1  UNL1        0.0198
     18 C         142.4770  139.9638  165.6601 C.3     1  UNL1        0.0926
     19 C         143.3029  138.7698  165.2828 C.3     1  UNL1        0.0383
     20 C         143.7736  138.1135  166.5468 C.3     1  UNL1        0.0704
     21 N         143.2386  138.9019  167.7054 N.3     1  UNL1       -0.2960
     22 C         142.4373  140.0454  167.1574 C.3     1  UNL1        0.0887
     23 H         144.0114  139.2587  168.2675 H       1  UNL1        0.1233
@<TRIPOS>BOND
     1    10    11    1
     2    11     4    1
     3     4     5   ar
     4     5     6   ar
     5     6     7   ar
     6     7     8   ar
     7     8     9   ar
     8     9     1    1
     9     1     2    2
    10     1     3   am
    11     3    12    1
    12    12    13    1
    13    13    14    1
    14    14    15    1
    15    15    16    1
    16    16    17    1
    17    18     3    1
    18    18    19    1
    19    19    20    1
    20    20    21    1
    21    21    22    1
    22     9     4   ar
    23    17    12    1
    24    22    18    1
    25    21    23    1
@<TRIPOS>MOLECULE
*****
 23 25 0 0 0
SMALL
GASTEIGER

@<TRIPOS>ATOM
      1 C         140.0736  140.9985  165.8455 C.2     1  UNL1        0.2494
      2 O         140.1072  139.8672  166.8298 O.2     1  UNL1       -0.2699
      3 N         140.6637  142.3283  166.2109 N.am    1  UNL1       -0.2779
      4 C         140.2696  140.2558  163.3636 C.ar    1  UNL1        0.0296
      5 C         139.6460  140.0574  162.0139 C.ar    1  UNL1        0.0063
      6 C         138.2028  140.4034  161.7964 C.ar    1  UNL1        0.0005
      7 C         137.3831  140.9477  162.9286 C.ar    1  UNL1        0.0002
      8 C         138.0067  141.1461  164.2783 C.ar    1  UNL1        0.0050
      9 C         139.4500  140.8001  164.4958 C.ar    1  UNL1        0.0592
     10 C         142.1093  138.4917  163.8673 C.3     1  UNL1        0.0742
     11 S         141.7129  139.9098  163.5811 S.3     1  UNL1       -0.1126
     12 C         141.2874  142.5267  167.5605 C.3     1  UNL1        0.0756
     13 C         142.7127  142.1222  167.7950 C.3     1  UNL1        0.0198
     14 C         143.3363  142.3207  169.1447 C.3     1  UNL1        0.0017
     15 C         142.5347  142.9236  170.2600 C.3     1  UNL1        0.0001
     16 C         141.1094  143.3281  170.0255 C.3     1  UNL1        0.0017
     17 C         140.4858  143.1297  168.6759 C.3     1  UNL1        0.0198
     18 C         140.6302  143.4597  165.2265 C.3     1  UNL1        0.0926
     19 C         141.7257  143.8300  164.2712 C.3     1  UNL1        0.0383
     20 C         141.2678  145.0185  163.4789 C.3     1  UNL1        0.0704
     21 N         139.8892  145.3828  163.9446 N.3     1  UNL1       -0.2960
     22 C         139.4951  144.4193  165.0246 C.3     1  UNL1        0.0887
     23 H         139.2326  145.3181  163.1666 H       1  UNL1        0.1233
@<TRIPOS>BOND
     1    10    11    1
     2    11     4    1
     3     4     5   ar
     4     5     6   ar
     5     6     7   ar
     6     7     8   ar
     7     8     9   ar
     8     9     1    1
     9     1     2    2
    10     1     3   am
    11     3    12    1
    12    12    13    1
    13    13    14    1
    14    14    15    1
    15    15    16    1
    16    16    17    1
    17    18     3    1
    18    18    19    1
    19    19    20    1
    20    20    21    1
    21    21    22    1
    22     9     4   ar
    23    17    12    1
    24    22    18    1
    25    21    23    1
@<TRIPOS>MOLECULE
*****
 23 25 0 0 0
SMALL
GASTEIGER

@<TRIPOS>ATOM
      1 C         142.4209  142.4069  165.9274 C.2     1  UNL1        0.2494
      2 O         143.3718  141.9205  166.9805 O.2     1  UNL1       -0.2699
      3 N         140.9530  142.4925  166.2241 N.am    1  UNL1       -0.2779
      4 C         143.0837  141.7799  163.4948 C.ar    1  UNL1        0.0296
      5 C         143.6006  142.1806  162.1449 C.ar    1  UNL1        0.0063
      6 C         143.9716  143.6092  161.8778 C.ar    1  UNL1        0.0005
      7 C         143.8257  144.6370  162.9605 C.ar    1  UNL1        0.0002
      8 C         143.3088  144.2363  164.3103 C.ar    1  UNL1        0.0050
      9 C         142.9378  142.8077  164.5775 C.ar    1  UNL1        0.0592
     10 C         143.7724  139.3592  164.1399 C.3     1  UNL1        0.0742
     11 S         142.7127  140.3512  163.7620 S.3     1  UNL1       -0.1126
     12 C         140.4361  142.0917  167.5739 C.3     1  UNL1        0.0756
     13 C         140.4892  143.0627  168.7160 C.3     1  UNL1        0.0198
     14 C         139.9722  142.6618  170.0659 C.3     1  UNL1        0.0017
     15 C         139.4022  141.2901  170.2737 C.3     1  UNL1        0.0001
     16 C         139.3491  140.3190  169.1316 C.3     1  UNL1        0.0017
     17 C         139.8660  140.7198  167.7818 C.3     1  UNL1        0.0198
     18 C         140.0021  142.9789  165.1709 C.3     1  UNL1        0.0926
     19 C         139.5750  144.4008  164.9574 C.3     1  UNL1        0.0383
     20 C         138.6203  144.4294  163.8009 C.3     1  UNL1        0.0704
     21 N         138.4573  143.0251  163.2995 N.3     1  UNL1       -0.2960
     22 C         139.3113  142.1286  164.1462 C.3     1  UNL1        0.0887
     23 H         138.7553  142.9684  162.3257 H       1  UNL1        0.1233
@<TRIPOS>BOND
     1    10    11    1
     2    11     4    1
     3     4     5   ar
     4     5     6   ar
     5     6     7   ar
     6     7     8   ar
     7     8     9   ar
     8     9     1    1
     9     1     2    2
    10     1     3   am
    11     3    12    1
    12    12    13    1
    13    13    14    1
    14    14    15    1
    15    15    16    1
    16    16    17    1
    17    18     3    1
    18    18    19    1
    19    19    20    1
    20    20    21    1
    21    21    22    1
    22     9     4   ar
    23    17    12    1
    24    22    18    1
    25    21    23    1
@<TRIPOS>MOLECULE
*****
 23 25 0 0 0
SMALL
GASTEIGER

@<TRIPOS>ATOM
      1 C         141.2706  140.4823  165.0043 C.2     1  UNL1        0.2494
      2 O         142.6748  140.2598  165.4824 O.2     1  UNL1       -0.2699
      3 N         140.9694  141.6077  164.0594 N.am    1  UNL1       -0.2779
      4 C         139.9265  138.2702  164.7797 C.ar    1  UNL1        0.0296
      5 C         138.8234  137.3674  165.2465 C.ar    1  UNL1        0.0063
      6 C         137.9612  137.7736  166.4048 C.ar    1  UNL1        0.0005
      7 C         138.2021  139.0828  167.0962 C.ar    1  UNL1        0.0002
      8 C         139.3052  139.9857  166.6294 C.ar    1  UNL1        0.0050
      9 C         140.1674  139.5794  165.4712 C.ar    1  UNL1        0.0592
     10 C         140.2290  137.8746  162.2298 C.3     1  UNL1        0.0742
     11 S         140.7887  137.8640  163.6215 S.3     1  UNL1       -0.1126
     12 C         142.0725  142.5105  163.5926 C.3     1  UNL1        0.0756
     13 C         142.7857  142.2196  162.3055 C.3     1  UNL1        0.0198
     14 C         143.8888  143.1226  161.8386 C.3     1  UNL1        0.0017
     15 C         144.2787  144.3164  162.6589 C.3     1  UNL1        0.0001
     16 C         143.5654  144.6073  163.9460 C.3     1  UNL1        0.0017
     17 C         142.4624  143.7044  164.4128 C.3     1  UNL1        0.0198
     18 C         139.5651  141.8301  163.5814 C.3     1  UNL1        0.0926
     19 C         138.5401  142.7090  164.2349 C.3     1  UNL1        0.0383
     20 C         137.2808  142.6348  163.4233 C.3     1  UNL1        0.0704
     21 N         137.5275  141.7101  162.2682 N.3     1  UNL1       -0.2960
     22 C         138.9392  141.2128  162.3660 C.3     1  UNL1        0.0887
     23 H         137.3971  142.2114  161.3895 H       1  UNL1        0.1233
@<TRIPOS>BOND
     1    10    11    1
     2    11     4    1
     3     4     5   ar
     4     5     6   ar
     5     6     7   ar
     6     7     8   ar
     7     8     9   ar
     8     9     1    1
     9     1     2    2
    10     1     3   am
    11     3    12    1
    12    12    13    1
    13    13    14    1
    14    14    15    1
    15    15    16    1
    16    16    17    1
    17    18     3    1
    18    18    19    1
    19    19    20    1
    20    20    21    1
    21    21    22    1
    22     9     4   ar
    23    17    12    1
    24    22    18    1
    25    21    23    1
@<TRIPOS>MOLECULE
*****
 23 25 0 0 0
SMALL
GASTEIGER

@<TRIPOS>ATOM
      1 C         143.1867  141.8541  166.1202 C.2     1  UNL1        0.2494
      2 O         143.5547  142.7239  167.2855 O.2     1  UNL1       -0.2699
      3 N         142.2515  140.6974  166.3135 N.am    1  UNL1       -0.2779
      4 C         143.0649  143.1135  163.8510 C.ar    1  UNL1        0.0296
      5 C         143.6322  143.4003  162.4924 C.ar    1  UNL1        0.0063
      6 C         144.8887  142.7146  162.0443 C.ar    1  UNL1        0.0005
      7 C         145.5779  141.7419  162.9548 C.ar    1  UNL1        0.0002
      8 C         145.0106  141.4551  164.3134 C.ar    1  UNL1        0.0050
      9 C         143.7541  142.1409  164.7615 C.ar    1  UNL1        0.0592
     10 C         141.4420  145.1390  163.7324 C.3     1  UNL1        0.0742
     11 S         141.8083  143.7993  164.2992 S.3     1  UNL1       -0.1126
     12 C         141.6841  140.4106  167.6720 C.3     1  UNL1        0.0756
     13 C         142.4909  139.6394  168.6742 C.3     1  UNL1        0.0198
     14 C         141.9235  139.3526  170.0329 C.3     1  UNL1        0.0017
     15 C         140.5493  139.8370  170.3893 C.3     1  UNL1        0.0001
     16 C         139.7425  140.6082  169.3871 C.3     1  UNL1        0.0017
     17 C         140.3099  140.8950  168.0285 C.3     1  UNL1        0.0198
     18 C         141.8835  139.8276  165.1481 C.3     1  UNL1        0.0926
     19 C         142.5780  138.5630  164.7378 C.3     1  UNL1        0.0383
     20 C         141.8802  138.0235  163.5246 C.3     1  UNL1        0.0704
     21 N         140.7543  138.9547  163.1850 N.3     1  UNL1       -0.2960
     22 C         140.7564  140.0697  164.1883 C.3     1  UNL1        0.0887
     23 H         139.8667  138.4540  163.2257 H       1  UNL1        0.1233
@<TRIPOS>BOND
     1    10    11    1
     2    11     4    1
     3     4     5   ar
     4     5     6   ar
     5     6     7   ar
     6     7     8   ar
     7     8     9   ar
     8     9     1    1
     9     1     2    2
    10     1     3   am
    11     3    12    1
    12    12    13    1
    13    13    14    1
    14    14    15    1
    15    15    16    1
    16    16    17    1
    17    18     3    1
    18    18    19    1
    19    19    20    1
    20    20    21    1
    21    21    22    1
    22     9     4   ar
    23    17    12    1
    24    22    18    1
    25    21    23    1
@<TRIPOS>MOLECULE
*****
 23 25 0 0 0
SMALL
GASTEIGER

@<TRIPOS>ATOM
      1 C         140.0642  139.8090  166.2643 C.2     1  UNL1        0.2494
      2 O         139.2226  139.9438  167.4986 O.2     1  UNL1       -0.2699
      3 N         141.5330  140.1078  166.3217 N.am    1  UNL1       -0.2779
      4 C         138.7429  140.3804  164.1014 C.ar    1  UNL1        0.0296
      5 C         138.1157  139.9470  162.8096 C.ar    1  UNL1        0.0063
      6 C         138.1825  138.5087  162.3889 C.ar    1  UNL1        0.0005
      7 C         138.8765  137.5039  163.2600 C.ar    1  UNL1        0.0002
      8 C         139.5037  137.9373  164.5517 C.ar    1  UNL1        0.0050
      9 C         139.4369  139.3756  164.9724 C.ar    1  UNL1        0.0592
     10 C         139.3513  142.8736  163.6967 C.3     1  UNL1        0.0742
     11 S         138.6762  141.8187  164.5221 S.3     1  UNL1       -0.1126
     12 C         142.1603  140.5412  167.6134 C.3     1  UNL1        0.0756
     13 C         142.2569  139.5792  168.7602 C.3     1  UNL1        0.0198
     14 C         142.8842  140.0127  170.0520 C.3     1  UNL1        0.0017
     15 C         143.4149  141.4082  170.1969 C.3     1  UNL1        0.0001
     16 C         143.3182  142.3702  169.0501 C.3     1  UNL1        0.0017
     17 C         142.6909  141.9368  167.7584 C.3     1  UNL1        0.0198
     18 C         142.3746  139.9730  165.0873 C.3     1  UNL1        0.0926
     19 C         143.1605  138.7607  164.6840 C.3     1  UNL1        0.0383
     20 C         143.8496  139.0654  163.3869 C.3     1  UNL1        0.0704
     21 N         143.4896  140.4661  162.9886 N.3     1  UNL1       -0.2960
     22 C         142.5780  141.0270  164.0395 C.3     1  UNL1        0.0887
     23 H         143.0140  140.4579  162.0863 H       1  UNL1        0.1233
@<TRIPOS>BOND
     1    10    11    1
     2    11     4    1
     3     4     5   ar
     4     5     6   ar
     5     6     7   ar
     6     7     8   ar
     7     8     9   ar
     8     9     1    1
     9     1     2    2
    10     1     3   am
    11     3    12    1
    12    12    13    1
    13    13    14    1
    14    14    15    1
    15    15    16    1
    16    16    17    1
    17    18     3    1
    18    18    19    1
    19    19    20    1
    20    20    21    1
    21    21    22    1
    22     9     4   ar
    23    17    12    1
    24    22    18    1
    25    21    23    1
@<TRIPOS>MOLECULE
*****
 23 25 0 0 0
SMALL
GASTEIGER

@<TRIPOS>ATOM
      1 C         142.2603  139.8491  166.1027 C.2     1  UNL1        0.2494
      2 O         142.7827  139.1432  167.3187 O.2     1  UNL1       -0.2699
      3 N         141.1914  140.8922  166.2422 N.am    1  UNL1       -0.2779
      4 C         142.1985  138.3971  163.9491 C.ar    1  UNL1        0.0296
      5 C         142.7450  138.0599  162.5935 C.ar    1  UNL1        0.0063
      6 C         143.9000  138.8378  162.0359 C.ar    1  UNL1        0.0005
      7 C         144.5084  139.9528  162.8338 C.ar    1  UNL1        0.0002
      8 C         143.9618  140.2899  164.1894 C.ar    1  UNL1        0.0050
      9 C         142.8069  139.5120  164.7470 C.ar    1  UNL1        0.0592
     10 C         139.7291  137.6066  163.7844 C.3     1  UNL1        0.0742
     11 S         141.0435  137.6192  164.5068 S.3     1  UNL1       -0.1126
     12 C         140.6448  141.2293  167.5977 C.3     1  UNL1        0.0756
     13 C         141.0017  142.5334  168.2473 C.3     1  UNL1        0.0198
     14 C         140.4551  142.8705  169.6029 C.3     1  UNL1        0.0017
     15 C         139.5516  141.9035  170.3089 C.3     1  UNL1        0.0001
     16 C         139.1947  140.5994  169.6594 C.3     1  UNL1        0.0017
     17 C         139.7412  140.2623  168.3038 C.3     1  UNL1        0.0198
     18 C         140.6691  141.5981  165.0261 C.3     1  UNL1        0.0926
     19 C         141.2446  142.8398  164.4121 C.3     1  UNL1        0.0383
     20 C         140.4107  143.1953  163.2170 C.3     1  UNL1        0.0704
     21 N         139.3197  142.1733  163.0924 N.3     1  UNL1       -0.2960
     22 C         139.4794  141.1862  164.2104 C.3     1  UNL1        0.0887
     23 H         139.3947  141.6948  162.1947 H       1  UNL1        0.1233
@<TRIPOS>BOND
     1    10    11    1
     2    11     4    1
     3     4     5   ar
     4     5     6   ar
     5     6     7   ar
     6     7     8   ar
     7     8     9   ar
     8     9     1    1
     9     1     2    2
    10     1     3   am
    11     3    12    1
    12    12    13    1
    13    13    14    1
    14    14    15    1
    15    15    16    1
    16    16    17    1
    17    18     3    1
    18    18    19    1
    19    19    20    1
    20    20    21    1
    21    21    22    1
    22     9     4   ar
    23    17    12    1
    24    22    18    1
    25    21    23    1
@<TRIPOS>MOLECULE
*****
 23 25 0 0 0
SMALL
GASTEIGER

@<TRIPOS>ATOM
      1 C         141.8711  139.9783  167.1617 C.2     1  UNL1        0.2494
      2 O         142.9027  138.9244  167.4353 O.2     1  UNL1       -0.2699
      3 N         141.6258  140.4407  165.7560 N.am    1  UNL1       -0.2779
      4 C         141.6444  141.7223  169.0741 C.ar    1  UNL1        0.0296
      5 C         140.8582  142.3140  170.2062 C.ar    1  UNL1        0.0063
      6 C         139.5121  141.7533  170.5580 C.ar    1  UNL1        0.0005
      7 C         138.9524  140.6010  169.7777 C.ar    1  UNL1        0.0002
      8 C         139.7387  140.0094  168.6456 C.ar    1  UNL1        0.0050
      9 C         141.0847  140.5700  168.2938 C.ar    1  UNL1        0.0592
     10 C         144.0369  142.4442  169.7849 C.3     1  UNL1        0.0742
     11 S         142.9906  142.2830  168.7223 S.3     1  UNL1       -0.1126
     12 C         142.4121  139.8491  164.6239 C.3     1  UNL1        0.0756
     13 C         141.8400  138.7157  163.8251 C.3     1  UNL1        0.0198
     14 C         142.6264  138.1241  162.6929 C.3     1  UNL1        0.0017
     15 C         143.9848  138.6659  162.3596 C.3     1  UNL1        0.0001
     16 C         144.5569  139.7993  163.1584 C.3     1  UNL1        0.0017
     17 C         143.7706  140.3909  164.2905 C.3     1  UNL1        0.0198
     18 C         140.5941  141.4948  165.4824 C.3     1  UNL1        0.0926
     19 C         140.7992  142.9771  165.5858 C.3     1  UNL1        0.0383
     20 C         139.5081  143.6499  165.2247 C.3     1  UNL1        0.0704
     21 N         138.5051  142.5834  164.8981 N.3     1  UNL1       -0.2960
     22 C         139.1763  141.2515  165.0573 C.3     1  UNL1        0.0887
     23 H         138.1814  142.6952  163.9373 H       1  UNL1        0.1233
@<TRIPOS>BOND
     1    10    11    1
     2    11     4    1
     3     4     5   ar
     4     5     6   ar
     5     6     7   ar
     6     7     8   ar
     7     8     9   ar
     8     9     1    1
     9     1     2    2
    10     1     3   am
    11     3    12    1
    12    12    13    1
    13    13    14    1
    14    14    15    1
    15    15    16    1
    16    16    17    1
    17    18     3    1
    18    18    19    1
    19    19    20    1
    20    20    21    1
    21    21    22    1
    22     9     4   ar
    23    17    12    1
    24    22    18    1
    25    21    23    1
