@<TRIPOS>MOLECULE
*****
 30 32 0 0 0
SMALL
GASTEIGER

@<TRIPOS>ATOM
      1 C         139.7083  141.2277  165.9120 C.ar    1  UNL1        0.1409
      2 N         139.9894  141.0456  167.3741 N.ar    1  UNL1       -0.1986
      3 C         139.2949  139.9600  168.1419 C.ar    1  UNL1        0.2181
      4 N         138.3194  139.0566  167.4475 N.ar    1  UNL1       -0.2120
      5 C         138.0383  139.2387  165.9853 C.ar    1  UNL1        0.1091
      6 C         138.7327  140.3242  165.2176 C.ar    1  UNL1        0.1040
      7 C         138.4516  140.5064  163.7555 C.2     1  UNL1        0.2470
      8 N         137.0791  140.9041  163.2995 N.am    1  UNL1       -0.3252
      9 O         139.5431  140.2907  162.7494 O.2     1  UNL1       -0.2702
     10 H         136.3628  141.0457  163.9598 H       1  UNL1        0.1453
     11 H         136.8946  141.0237  162.3398 H       1  UNL1        0.1453
     12 N         140.4026  142.3132  165.1443 N.pl3   1  UNL1       -0.2977
     13 H         139.8909  143.0859  164.8121 H       1  UNL1        0.1536
     14 C         144.6811  139.4459  164.4558 C.3     1  UNL1        0.0311
     15 C         144.0160  140.7879  164.5385 C.ar    1  UNL1       -0.0206
     16 C         144.8251  142.0382  164.3595 C.ar    1  UNL1       -0.0042
     17 C         144.1601  143.3802  164.4422 C.ar    1  UNL1        0.0009
     18 C         142.6860  143.4719  164.7038 C.ar    1  UNL1        0.0146
     19 C         141.8769  142.2216  164.8827 C.ar    1  UNL1        0.0491
     20 C         142.5419  140.8796  164.8001 C.ar    1  UNL1        0.0104
     21 N         139.5760  139.7779  169.6040 N.pl3   1  UNL1       -0.3008
     22 H         138.8473  139.5315  170.2184 H       1  UNL1        0.1497
     23 C         140.9675  139.9712  170.1300 C.3     1  UNL1        0.1180
     24 C         142.1713  139.1567  169.7592 C.3     1  UNL1        0.1631
     25 O         143.3472  139.6950  170.5191 O.3     1  UNL1       -0.3505
     26 C         142.8701  140.8422  171.3595 C.3     1  UNL1        0.1593
     27 C         141.3994  141.0129  171.1190 C.3     1  UNL1        0.1015
     28 N         140.5158  142.0442  171.7558 N.3     1  UNL1       -0.3188
     29 H         141.0694  142.6231  172.3873 H       1  UNL1        0.1189
     30 H         139.7753  141.5797  172.2815 H       1  UNL1        0.1189
@<TRIPOS>BOND
     1    14    15    1
     2    15    16   ar
     3    16    17   ar
     4    17    18   ar
     5    18    19   ar
     6    19    12    1
     7    12     1    1
     8     1     2   ar
     9     2     3   ar
    10     3    21    1
    11    23    21    1
    12    23    24    1
    13    24    25    1
    14    25    26    1
    15    26    27    1
    16    27    28    1
    17     3     4   ar
    18     4     5   ar
    19     5     6   ar
    20     6     7    1
    21     7     8   am
    22     7     9    2
    23    19    20   ar
    24    20    15   ar
    25     6     1   ar
    26    27    23    1
    27    12    13    1
    28    21    22    1
    29    28    29    1
    30    28    30    1
    31     8    10    1
    32     8    11    1
@<TRIPOS>MOLECULE
*****
 30 32 0 0 0
SMALL
GASTEIGER

@<TRIPOS>ATOM
      1 C         140.0826  140.2229  165.8299 C.ar    1  UNL1        0.1409
      2 N         140.3549  140.5948  167.2574 N.ar    1  UNL1       -0.1986
      3 C         139.4728  140.0689  168.3507 C.ar    1  UNL1        0.2181
      4 N         138.3185  139.1712  168.0166 N.ar    1  UNL1       -0.2120
      5 C         138.0462  138.7993  166.5892 C.ar    1  UNL1        0.1091
      6 C         138.9282  139.3252  165.4958 C.ar    1  UNL1        0.1040
      7 C         138.6560  138.9533  164.0684 C.2     1  UNL1        0.2470
      8 N         138.8176  137.5311  163.6199 N.am    1  UNL1       -0.3252
      9 O         138.2220  140.0038  163.0894 O.2     1  UNL1       -0.2702
     10 H         139.1024  136.8417  164.2625 H       1  UNL1        0.1453
     11 H         138.6389  137.2871  162.6831 H       1  UNL1        0.1453
     12 N         140.9646  140.7488  164.7366 N.pl3   1  UNL1       -0.2977
     13 H         141.5157  140.1280  164.2072 H       1  UNL1        0.1536
     14 C         143.6661  145.0260  163.5502 C.3     1  UNL1        0.0311
     15 C         142.3579  144.3591  163.8565 C.ar    1  UNL1       -0.0206
     16 C         141.0923  145.1639  163.8761 C.ar    1  UNL1       -0.0042
     17 C         139.7841  144.4970  164.1824 C.ar    1  UNL1        0.0009
     18 C         139.7415  143.0253  164.4693 C.ar    1  UNL1        0.0146
     19 C         141.0072  142.2205  164.4497 C.ar    1  UNL1        0.0491
     20 C         142.3154  142.8874  164.1434 C.ar    1  UNL1        0.0104
     21 N         139.7451  140.4407  169.7782 N.pl3   1  UNL1       -0.3008
     22 H         139.3283  139.9285  170.5084 H       1  UNL1        0.1497
     23 C         140.6523  141.5931  170.0931 C.3     1  UNL1        0.1180
     24 C         140.3472  143.0437  169.8637 C.3     1  UNL1        0.1631
     25 O         141.5302  143.8443  170.3214 O.3     1  UNL1       -0.3505
     26 C         142.5665  142.8884  170.8337 C.3     1  UNL1        0.1593
     27 C         142.0239  141.4971  170.6926 C.3     1  UNL1        0.1015
     28 N         142.7292  140.2320  171.0825 N.3     1  UNL1       -0.3188
     29 H         143.6475  140.4585  171.4643 H       1  UNL1        0.1189
     30 H         142.8398  139.6374  170.2611 H       1  UNL1        0.1189
@<TRIPOS>BOND
     1    14    15    1
     2    15    16   ar
     3    16    17   ar
     4    17    18   ar
     5    18    19   ar
     6    19    12    1
     7    12     1    1
     8     1     2   ar
     9     2     3   ar
    10     3    21    1
    11    23    21    1
    12    23    24    1
    13    24    25    1
    14    25    26    1
    15    26    27    1
    16    27    28    1
    17     3     4   ar
    18     4     5   ar
    19     5     6   ar
    20     6     7    1
    21     7     8   am
    22     7     9    2
    23    19    20   ar
    24    20    15   ar
    25     6     1   ar
    26    27    23    1
    27    12    13    1
    28    21    22    1
    29    28    29    1
    30    28    30    1
    31     8    10    1
    32     8    11    1
@<TRIPOS>MOLECULE
*****
 30 32 0 0 0
SMALL
GASTEIGER

@<TRIPOS>ATOM
      1 C         141.0199  139.7149  165.7638 C.ar    1  UNL1        0.1409
      2 N         141.3622  140.0304  167.1897 N.ar    1  UNL1       -0.1986
      3 C         142.6024  139.4561  167.8080 C.ar    1  UNL1        0.2181
      4 N         143.5002  138.5663  167.0004 N.ar    1  UNL1       -0.2120
      5 C         143.1578  138.2508  165.5745 C.ar    1  UNL1        0.1091
      6 C         141.9177  138.8250  164.9562 C.ar    1  UNL1        0.1040
      7 C         141.5753  138.5095  163.5303 C.2     1  UNL1        0.2470
      8 N         141.4408  137.0821  163.0895 N.am    1  UNL1       -0.3252
      9 O         141.3675  139.6215  162.5452 O.2     1  UNL1       -0.2702
     10 H         141.5773  136.3523  163.7361 H       1  UNL1        0.1453
     11 H         141.2161  136.8750  162.1536 H       1  UNL1        0.1453
     12 N         139.7798  140.2891  165.1455 N.pl3   1  UNL1       -0.2977
     13 H         139.0237  139.7001  164.9208 H       1  UNL1        0.1536
     14 C         142.0940  144.8019  164.0145 C.3     1  UNL1        0.0311
     15 C         140.8488  144.0173  164.3042 C.ar    1  UNL1       -0.0206
     16 C         139.5156  144.7045  164.3179 C.ar    1  UNL1       -0.0042
     17 C         138.2704  143.9199  164.6076 C.ar    1  UNL1        0.0009
     18 C         138.3584  142.4481  164.8834 C.ar    1  UNL1        0.0146
     19 C         139.6917  141.7610  164.8697 C.ar    1  UNL1        0.0491
     20 C         140.9369  142.5456  164.5800 C.ar    1  UNL1        0.0104
     21 N         142.9448  139.7717  169.2339 N.pl3   1  UNL1       -0.3008
     22 H         143.6295  139.2434  169.7043 H       1  UNL1        0.1497
     23 C         142.2438  140.8922  169.9433 C.3     1  UNL1        0.1180
     24 C         142.6845  142.3256  169.9791 C.3     1  UNL1        0.1631
     25 O         141.6922  143.0954  170.7992 O.3     1  UNL1       -0.3505
     26 C         140.6380  142.1377  171.2702 C.3     1  UNL1        0.1593
     27 C         140.9790  140.7761  170.7412 C.3     1  UNL1        0.1015
     28 N         140.1930  139.5192  170.9701 N.3     1  UNL1       -0.3188
     29 H         139.3787  139.7278  171.5477 H       1  UNL1        0.1189
     30 H         140.7798  138.8330  171.4447 H       1  UNL1        0.1189
@<TRIPOS>BOND
     1    14    15    1
     2    15    16   ar
     3    16    17   ar
     4    17    18   ar
     5    18    19   ar
     6    19    12    1
     7    12     1    1
     8     1     2   ar
     9     2     3   ar
    10     3    21    1
    11    23    21    1
    12    23    24    1
    13    24    25    1
    14    25    26    1
    15    26    27    1
    16    27    28    1
    17     3     4   ar
    18     4     5   ar
    19     5     6   ar
    20     6     7    1
    21     7     8   am
    22     7     9    2
    23    19    20   ar
    24    20    15   ar
    25     6     1   ar
    26    27    23    1
    27    12    13    1
    28    21    22    1
    29    28    29    1
    30    28    30    1
    31     8    10    1
    32     8    11    1
@<TRIPOS>MOLECULE
*****
 30 32 0 0 0
SMALL
GASTEIGER

@<TRIPOS>ATOM
      1 C         142.4039  140.4178  165.6022 C.ar    1  UNL1        0.1409
      2 N         142.1178  140.7682  167.0323 N.ar    1  UNL1       -0.1986
      3 C         142.5852  139.8639  168.1341 C.ar    1  UNL1        0.2181
      4 N         143.3387  138.6092  167.8056 N.ar    1  UNL1       -0.2120
      5 C         143.6248  138.2587  166.3755 C.ar    1  UNL1        0.1091
      6 C         143.1574  139.1630  165.2737 C.ar    1  UNL1        0.1040
      7 C         143.4435  138.8125  163.8436 C.2     1  UNL1        0.2470
      8 N         144.7570  139.1920  163.2267 N.am    1  UNL1       -0.3252
      9 O         142.4160  138.0825  163.0303 O.2     1  UNL1       -0.2702
     10 H         145.4314  139.6712  163.7605 H       1  UNL1        0.1453
     11 H         144.9448  138.9620  162.2881 H       1  UNL1        0.1453
     12 N         141.9365  141.3220  164.5005 N.pl3   1  UNL1       -0.2977
     13 H         142.5598  141.5930  163.7882 H       1  UNL1        0.1536
     14 C         138.4435  145.0201  165.5605 C.3     1  UNL1        0.0311
     15 C         138.7729  143.6626  165.0140 C.ar    1  UNL1       -0.0206
     16 C         137.6853  142.7966  164.4509 C.ar    1  UNL1       -0.0042
     17 C         138.0146  141.4392  163.9044 C.ar    1  UNL1        0.0009
     18 C         139.4317  140.9476  163.9209 C.ar    1  UNL1        0.0146
     19 C         140.5193  141.8136  164.4839 C.ar    1  UNL1        0.0491
     20 C         140.1900  143.1711  165.0305 C.ar    1  UNL1        0.0104
     21 N         142.2991  140.2143  169.5642 N.pl3   1  UNL1       -0.3008
     22 H         142.5518  139.5916  170.2836 H       1  UNL1        0.1497
     23 C         141.6281  141.5137  169.8982 C.3     1  UNL1        0.1180
     24 C         142.2954  142.8544  169.9829 C.3     1  UNL1        0.1631
     25 O         141.2517  143.8697  170.3432 O.3     1  UNL1       -0.3505
     26 C         139.9393  143.1565  170.4811 C.3     1  UNL1        0.1593
     27 C         140.1720  141.7004  170.2061 C.3     1  UNL1        0.1015
     28 N         139.1312  140.6206  170.2341 N.3     1  UNL1       -0.3188
     29 H         138.2261  141.0268  170.4715 H       1  UNL1        0.1189
     30 H         139.3843  139.9224  170.9333 H       1  UNL1        0.1189
@<TRIPOS>BOND
     1    14    15    1
     2    15    16   ar
     3    16    17   ar
     4    17    18   ar
     5    18    19   ar
     6    19    12    1
     7    12     1    1
     8     1     2   ar
     9     2     3   ar
    10     3    21    1
    11    23    21    1
    12    23    24    1
    13    24    25    1
    14    25    26    1
    15    26    27    1
    16    27    28    1
    17     3     4   ar
    18     4     5   ar
    19     5     6   ar
    20     6     7    1
    21     7     8   am
    22     7     9    2
    23    19    20   ar
    24    20    15   ar
    25     6     1   ar
    26    27    23    1
    27    12    13    1
    28    21    22    1
    29    28    29    1
    30    28    30    1
    31     8    10    1
    32     8    11    1
@<TRIPOS>MOLECULE
*****
 30 32 0 0 0
SMALL
GASTEIGER

@<TRIPOS>ATOM
      1 C         141.6531  141.2456  167.1758 C.ar    1  UNL1        0.1409
      2 N         140.7417  140.2879  166.4670 N.ar    1  UNL1       -0.1986
      3 C         139.5586  139.7082  167.1843 C.ar    1  UNL1        0.2181
      4 N         139.2870  140.0862  168.6102 N.ar    1  UNL1       -0.2120
      5 C         140.1984  141.0439  169.3190 C.ar    1  UNL1        0.1091
      6 C         141.3814  141.6236  168.6018 C.ar    1  UNL1        0.1040
      7 C         142.2927  142.5813  169.3105 C.2     1  UNL1        0.2470
      8 N         141.7384  143.5232  170.3378 N.am    1  UNL1       -0.3252
      9 O         143.7585  142.5970  168.9918 O.2     1  UNL1       -0.2702
     10 H         140.7765  143.5129  170.5469 H       1  UNL1        0.1453
     11 H         142.3366  144.1517  170.8030 H       1  UNL1        0.1453
     12 N         142.8361  141.8253  166.4586 N.pl3   1  UNL1       -0.2977
     13 H         143.7360  141.4593  166.6177 H       1  UNL1        0.1536
     14 C         139.6958  144.9249  163.7142 C.3     1  UNL1        0.0311
     15 C         141.0777  144.5125  164.1267 C.ar    1  UNL1       -0.0206
     16 C         142.2714  145.2374  163.5796 C.ar    1  UNL1       -0.0042
     17 C         143.6534  144.8250  163.9920 C.ar    1  UNL1        0.0009
     18 C         143.8416  143.6877  164.9517 C.ar    1  UNL1        0.0146
     19 C         142.6479  142.9627  165.4989 C.ar    1  UNL1        0.0491
     20 C         141.2659  143.3751  165.0864 C.ar    1  UNL1        0.0104
     21 N         138.6473  138.7506  166.4756 N.pl3   1  UNL1       -0.3008
     22 H         138.0851  138.1307  166.9942 H       1  UNL1        0.1497
     23 C         138.5924  138.7374  164.9766 C.3     1  UNL1        0.1180
     24 C         138.9995  137.5984  164.0894 C.3     1  UNL1        0.1631
     25 O         138.7796  138.0178  162.6662 O.3     1  UNL1       -0.3505
     26 C         138.2365  139.4161  162.6738 C.3     1  UNL1        0.1593
     27 C         138.1209  139.8608  164.1016 C.3     1  UNL1        0.1015
     28 N         137.6214  141.1947  164.5720 N.3     1  UNL1       -0.3188
     29 H         137.3671  141.7659  163.7661 H       1  UNL1        0.1189
     30 H         138.3544  141.6640  165.1038 H       1  UNL1        0.1189
@<TRIPOS>BOND
     1    14    15    1
     2    15    16   ar
     3    16    17   ar
     4    17    18   ar
     5    18    19   ar
     6    19    12    1
     7    12     1    1
     8     1     2   ar
     9     2     3   ar
    10     3    21    1
    11    23    21    1
    12    23    24    1
    13    24    25    1
    14    25    26    1
    15    26    27    1
    16    27    28    1
    17     3     4   ar
    18     4     5   ar
    19     5     6   ar
    20     6     7    1
    21     7     8   am
    22     7     9    2
    23    19    20   ar
    24    20    15   ar
    25     6     1   ar
    26    27    23    1
    27    12    13    1
    28    21    22    1
    29    28    29    1
    30    28    30    1
    31     8    10    1
    32     8    11    1
@<TRIPOS>MOLECULE
*****
 30 32 0 0 0
SMALL
GASTEIGER

@<TRIPOS>ATOM
      1 C         139.6499  140.7800  165.8135 C.ar    1  UNL1        0.1409
      2 N         139.9764  141.0929  167.2437 N.ar    1  UNL1       -0.1986
      3 C         139.3742  140.2741  168.3469 C.ar    1  UNL1        0.2181
      4 N         138.4455  139.1425  168.0199 N.ar    1  UNL1       -0.2120
      5 C         138.1191  138.8296  166.5896 C.ar    1  UNL1        0.1091
      6 C         138.7212  139.6483  165.4865 C.ar    1  UNL1        0.1040
      7 C         138.3948  139.3354  164.0563 C.2     1  UNL1        0.2470
      8 N         138.7434  137.9935  163.4837 N.am    1  UNL1       -0.3252
      9 O         137.7197  140.3644  163.1986 O.2     1  UNL1       -0.2702
     10 H         139.1864  137.3182  164.0466 H       1  UNL1        0.1453
     11 H         138.5291  137.7882  162.5450 H       1  UNL1        0.1453
     12 N         140.2521  141.5987  164.7103 N.pl3   1  UNL1       -0.2977
     13 H         139.6737  141.9937  164.0184 H       1  UNL1        0.1536
     14 C         145.0661  139.6941  164.2657 C.3     1  UNL1        0.0311
     15 C         144.1425  140.8633  164.4389 C.ar    1  UNL1       -0.0206
     16 C         144.7024  142.2493  164.5630 C.ar    1  UNL1       -0.0042
     17 C         143.7788  143.4185  164.7362 C.ar    1  UNL1        0.0009
     18 C         142.2954  143.2017  164.7853 C.ar    1  UNL1        0.0146
     19 C         141.7356  141.8156  164.6612 C.ar    1  UNL1        0.0491
     20 C         142.6592  140.6464  164.4880 C.ar    1  UNL1        0.0104
     21 N         139.7006  140.5871  169.7771 N.pl3   1  UNL1       -0.3008
     22 H         139.2936  140.0593  170.5017 H       1  UNL1        0.1497
     23 C         140.6473  141.7041  170.1032 C.3     1  UNL1        0.1180
     24 C         140.3857  143.1677  169.9046 C.3     1  UNL1        0.1631
     25 O         141.5984  143.9218  170.3638 O.3     1  UNL1       -0.3505
     26 C         142.6093  142.9241  170.8463 C.3     1  UNL1        0.1593
     27 C         142.0215  141.5536  170.6853 C.3     1  UNL1        0.1015
     28 N         142.6905  140.2597  171.0434 N.3     1  UNL1       -0.3188
     29 H         143.6196  140.4499  171.4190 H       1  UNL1        0.1189
     30 H         142.7733  139.6776  170.2098 H       1  UNL1        0.1189
@<TRIPOS>BOND
     1    14    15    1
     2    15    16   ar
     3    16    17   ar
     4    17    18   ar
     5    18    19   ar
     6    19    12    1
     7    12     1    1
     8     1     2   ar
     9     2     3   ar
    10     3    21    1
    11    23    21    1
    12    23    24    1
    13    24    25    1
    14    25    26    1
    15    26    27    1
    16    27    28    1
    17     3     4   ar
    18     4     5   ar
    19     5     6   ar
    20     6     7    1
    21     7     8   am
    22     7     9    2
    23    19    20   ar
    24    20    15   ar
    25     6     1   ar
    26    27    23    1
    27    12    13    1
    28    21    22    1
    29    28    29    1
    30    28    30    1
    31     8    10    1
    32     8    11    1
@<TRIPOS>MOLECULE
*****
 30 32 0 0 0
SMALL
GASTEIGER

@<TRIPOS>ATOM
      1 C         140.3316  139.8090  166.7766 C.ar    1  UNL1        0.1409
      2 N         140.1029  139.0103  165.5277 N.ar    1  UNL1       -0.1986
      3 C         138.8319  138.2320  165.3574 C.ar    1  UNL1        0.2181
      4 N         137.7897  138.2524  166.4359 N.ar    1  UNL1       -0.2120
      5 C         138.0183  139.0511  167.6848 C.ar    1  UNL1        0.1091
      6 C         139.2892  139.8294  167.8552 C.ar    1  UNL1        0.1040
      7 C         139.5179  140.6281  169.1041 C.2     1  UNL1        0.2470
      8 N         139.2144  140.0274  170.4446 N.am    1  UNL1       -0.3252
      9 O         140.0502  142.0276  169.0124 O.2     1  UNL1       -0.2702
     10 H         138.8650  139.1090  170.5047 H       1  UNL1        0.1453
     11 H         139.3645  140.5517  171.2643 H       1  UNL1        0.1453
     12 N         141.6025  140.5872  166.9470 N.pl3   1  UNL1       -0.2977
     13 H         142.2479  140.3293  167.6442 H       1  UNL1        0.1536
     14 C         139.9331  144.6809  164.2165 C.3     1  UNL1        0.0311
     15 C         141.0553  143.8053  164.6898 C.ar    1  UNL1       -0.0206
     16 C         142.4650  144.1009  164.2711 C.ar    1  UNL1       -0.0042
     17 C         143.5872  143.2253  164.7444 C.ar    1  UNL1        0.0009
     18 C         143.2997  142.0541  165.6363 C.ar    1  UNL1        0.0146
     19 C         141.8900  141.7585  166.0550 C.ar    1  UNL1        0.0491
     20 C         140.7678  142.6341  165.5817 C.ar    1  UNL1        0.0104
     21 N         138.6032  137.4333  164.1084 N.pl3   1  UNL1       -0.3008
     22 H         138.2537  136.5149  164.1686 H       1  UNL1        0.1497
     23 C         138.9070  138.0339  162.7679 C.3     1  UNL1        0.1180
     24 C         137.9803  138.8873  161.9536 C.3     1  UNL1        0.1631
     25 O         138.6914  139.2675  160.6888 O.3     1  UNL1       -0.3505
     26 C         140.0576  138.6490  160.7214 C.3     1  UNL1        0.1593
     27 C         140.1908  137.8867  162.0063 C.3     1  UNL1        0.1015
     28 N         141.3963  137.1129  162.4514 N.3     1  UNL1       -0.3188
     29 H         142.1254  137.1813  161.7414 H       1  UNL1        0.1189
     30 H         141.1420  136.1341  162.5845 H       1  UNL1        0.1189
@<TRIPOS>BOND
     1    14    15    1
     2    15    16   ar
     3    16    17   ar
     4    17    18   ar
     5    18    19   ar
     6    19    12    1
     7    12     1    1
     8     1     2   ar
     9     2     3   ar
    10     3    21    1
    11    23    21    1
    12    23    24    1
    13    24    25    1
    14    25    26    1
    15    26    27    1
    16    27    28    1
    17     3     4   ar
    18     4     5   ar
    19     5     6   ar
    20     6     7    1
    21     7     8   am
    22     7     9    2
    23    19    20   ar
    24    20    15   ar
    25     6     1   ar
    26    27    23    1
    27    12    13    1
    28    21    22    1
    29    28    29    1
    30    28    30    1
    31     8    10    1
    32     8    11    1
@<TRIPOS>MOLECULE
*****
 30 32 0 0 0
SMALL
GASTEIGER

@<TRIPOS>ATOM
      1 C         140.3140  139.7129  167.1335 C.ar    1  UNL1        0.1409
      2 N         141.4703  139.2874  166.2778 N.ar    1  UNL1       -0.1986
      3 C         142.8233  139.0836  166.8927 C.ar    1  UNL1        0.2181
      4 N         143.0200  139.3053  168.3631 N.ar    1  UNL1       -0.2120
      5 C         141.8637  139.7308  169.2187 C.ar    1  UNL1        0.1091
      6 C         140.5108  139.9346  168.6039 C.ar    1  UNL1        0.1040
      7 C         139.3546  140.3601  169.4595 C.2     1  UNL1        0.2470
      8 N         139.4449  141.6186  170.2706 N.am    1  UNL1       -0.3252
      9 O         138.1079  139.5270  169.5041 O.2     1  UNL1       -0.2702
     10 H         140.2631  142.1654  170.2414 H       1  UNL1        0.1453
     11 H         138.6860  141.8979  170.8322 H       1  UNL1        0.1453
     12 N         138.9611  139.9167  166.5187 N.pl3   1  UNL1       -0.2977
     13 H         138.2411  140.3378  167.0417 H       1  UNL1        0.1536
     14 C         137.6859  141.0616  161.6133 C.3     1  UNL1        0.0311
     15 C         138.0675  140.0513  162.6543 C.ar    1  UNL1       -0.0206
     16 C         138.1931  138.6033  162.2837 C.ar    1  UNL1       -0.0042
     17 C         138.5746  137.5930  163.3247 C.ar    1  UNL1        0.0009
     18 C         138.8307  138.0308  164.7364 C.ar    1  UNL1        0.0146
     19 C         138.7051  139.4788  165.1070 C.ar    1  UNL1        0.0491
     20 C         138.3235  140.4891  164.0659 C.ar    1  UNL1        0.0104
     21 N         143.9795  138.6581  166.0371 N.pl3   1  UNL1       -0.3008
     22 H         144.6248  137.9960  166.3754 H       1  UNL1        0.1497
     23 C         144.1526  139.2415  164.6660 C.3     1  UNL1        0.1180
     24 C         145.1623  140.2776  164.2697 C.3     1  UNL1        0.1631
     25 O         144.9802  140.5677  162.8094 O.3     1  UNL1       -0.3505
     26 C         143.8577  139.7109  162.3031 C.3     1  UNL1        0.1593
     27 C         143.3463  138.8913  163.4506 C.3     1  UNL1        0.1015
     28 N         142.2254  137.8962  163.3927 N.3     1  UNL1       -0.3188
     29 H         141.8545  137.8567  162.4434 H       1  UNL1        0.1189
     30 H         141.4856  138.1797  164.0352 H       1  UNL1        0.1189
@<TRIPOS>BOND
     1    14    15    1
     2    15    16   ar
     3    16    17   ar
     4    17    18   ar
     5    18    19   ar
     6    19    12    1
     7    12     1    1
     8     1     2   ar
     9     2     3   ar
    10     3    21    1
    11    23    21    1
    12    23    24    1
    13    24    25    1
    14    25    26    1
    15    26    27    1
    16    27    28    1
    17     3     4   ar
    18     4     5   ar
    19     5     6   ar
    20     6     7    1
    21     7     8   am
    22     7     9    2
    23    19    20   ar
    24    20    15   ar
    25     6     1   ar
    26    27    23    1
    27    12    13    1
    28    21    22    1
    29    28    29    1
    30    28    30    1
    31     8    10    1
    32     8    11    1
@<TRIPOS>MOLECULE
*****
 30 32 0 0 0
SMALL
GASTEIGER

@<TRIPOS>ATOM
      1 C         139.8204  140.0958  165.6640 C.ar    1  UNL1        0.1409
      2 N         139.8560  140.4676  167.1167 N.ar    1  UNL1       -0.1986
      3 C         138.9449  139.7793  168.0896 C.ar    1  UNL1        0.2181
      4 N         137.9984  138.7192  167.6097 N.ar    1  UNL1       -0.2120
      5 C         137.9629  138.3474  166.1569 C.ar    1  UNL1        0.1091
      6 C         138.8738  139.0357  165.1841 C.ar    1  UNL1        0.1040
      7 C         138.8383  138.6638  163.7313 C.2     1  UNL1        0.2470
      8 N         139.6980  137.5451  163.2222 N.am    1  UNL1       -0.3252
      9 O         137.9429  139.4108  162.7877 O.2     1  UNL1       -0.2702
     10 H         140.2856  137.0549  163.8415 H       1  UNL1        0.1453
     11 H         139.6747  137.3011  162.2687 H       1  UNL1        0.1453
     12 N         140.7314  140.7840  164.6911 N.pl3   1  UNL1       -0.2977
     13 H         140.3785  141.4868  164.0989 H       1  UNL1        0.1536
     14 C         145.5917  141.8239  163.1757 C.3     1  UNL1        0.0311
     15 C         144.6102  140.9213  163.8628 C.ar    1  UNL1       -0.0206
     16 C         145.0774  139.6362  164.4794 C.ar    1  UNL1       -0.0042
     17 C         144.0959  138.7337  165.1665 C.ar    1  UNL1        0.0009
     18 C         142.6473  139.1162  165.2371 C.ar    1  UNL1        0.0146
     19 C         142.1801  140.4014  164.6206 C.ar    1  UNL1        0.0491
     20 C         143.1616  141.3039  163.9334 C.ar    1  UNL1        0.0104
     21 N         138.9805  140.1511  169.5423 N.pl3   1  UNL1       -0.3008
     22 H         138.1637  140.0838  170.0878 H       1  UNL1        0.1497
     23 C         140.2606  140.6254  170.1640 C.3     1  UNL1        0.1180
     24 C         141.5434  139.8518  170.2402 C.3     1  UNL1        0.1631
     25 O         142.5583  140.7048  170.9418 O.3     1  UNL1       -0.3505
     26 C         141.9026  142.0058  171.2993 C.3     1  UNL1        0.1593
     27 C         140.4826  141.9567  170.8185 C.3     1  UNL1        0.1015
     28 N         139.4636  143.0474  170.9664 N.3     1  UNL1       -0.3188
     29 H         139.8832  143.8415  171.4498 H       1  UNL1        0.1189
     30 H         138.6707  142.7009  171.5065 H       1  UNL1        0.1189
@<TRIPOS>BOND
     1    14    15    1
     2    15    16   ar
     3    16    17   ar
     4    17    18   ar
     5    18    19   ar
     6    19    12    1
     7    12     1    1
     8     1     2   ar
     9     2     3   ar
    10     3    21    1
    11    23    21    1
    12    23    24    1
    13    24    25    1
    14    25    26    1
    15    26    27    1
    16    27    28    1
    17     3     4   ar
    18     4     5   ar
    19     5     6   ar
    20     6     7    1
    21     7     8   am
    22     7     9    2
    23    19    20   ar
    24    20    15   ar
    25     6     1   ar
    26    27    23    1
    27    12    13    1
    28    21    22    1
    29    28    29    1
    30    28    30    1
    31     8    10    1
    32     8    11    1
