@<TRIPOS>MOLECULE
*****
 24 26 0 0 0
SMALL
GASTEIGER

@<TRIPOS>ATOM
      1 C         141.7054  141.6889  169.1838 C.ar    1  UNL1        0.0395
      2 C         141.9570  141.1765  167.7967 C.ar    1  UNL1        0.0063
      3 C         140.9391  140.3045  167.1232 C.ar    1  UNL1        0.0376
      4 C         139.6697  139.9450  167.8369 C.ar    1  UNL1        0.1453
      5 C         139.4182  140.4574  169.2240 C.ar    1  UNL1        0.0376
      6 C         140.4360  141.3293  169.8974 C.ar    1  UNL1        0.0063
      7 N         144.8394  143.5297  170.5459 N.ar    1  UNL1       -0.1495
      8 N         143.7398  144.2760  171.2415 N.ar    1  UNL1       -0.0450
      9 N         142.4320  143.6772  170.8159 N.ar    1  UNL1       -0.1077
     10 C         142.7233  142.5609  169.8573 C.ar    1  UNL1        0.2058
     11 N         144.2112  142.4697  169.6904 N.ar    1  UNL1       -0.1297
     12 C         146.3093  143.7965  170.6819 C.3     1  UNL1        0.1681
     13 N         145.9621  146.2884  171.3297 N.3     1  UNL1       -0.3194
     14 C         146.7851  145.0354  171.3809 C.3     1  UNL1        0.0938
     15 H         146.4325  147.0258  171.8546 H       1  UNL1        0.1189
     16 H         145.0456  146.1103  171.7405 H       1  UNL1        0.1189
     17 O         138.6518  139.0729  167.1634 O.3     1  UNL1       -0.4535
     18 C         138.5802  139.0229  165.6660 C.ar    1  UNL1        0.1454
     19 C         138.1146  140.2236  164.8968 C.ar    1  UNL1        0.0384
     20 C         138.0430  140.1736  163.3993 C.ar    1  UNL1        0.0145
     21 C         138.4370  138.9229  162.6710 C.ar    1  UNL1        0.0579
     22 CL        138.3654  138.8729  161.1736 Cl      1  UNL1       -0.0822
     23 C         138.9026  137.7222  163.4402 C.ar    1  UNL1        0.0145
     24 C         138.9742  137.7722  164.9376 C.ar    1  UNL1        0.0384
@<TRIPOS>BOND
     1    13    14    1
     2    14    12    1
     3    12     7    1
     4     7     8   ar
     5     8     9   ar
     6     9    10   ar
     7    10     1    1
     8     1     2   ar
     9     2     3   ar
    10     3     4   ar
    11     4    17    1
    12    17    18    1
    13    18    19   ar
    14    19    20   ar
    15    20    21   ar
    16    21    22    1
    17    21    23   ar
    18    23    24   ar
    19     4     5   ar
    20     5     6   ar
    21    10    11   ar
    22    11     7   ar
    23     6     1   ar
    24    24    18   ar
    25    13    15    1
    26    13    16    1
@<TRIPOS>MOLECULE
*****
 24 26 0 0 0
SMALL
GASTEIGER

@<TRIPOS>ATOM
      1 C         142.9087  142.7964  170.2843 C.ar    1  UNL1        0.0395
      2 C         142.9593  141.2988  170.2190 C.ar    1  UNL1        0.0063
      3 C         141.7304  140.5222  169.8493 C.ar    1  UNL1        0.0376
      4 C         140.4509  141.2433  169.5449 C.ar    1  UNL1        0.1453
      5 C         140.4002  142.7410  169.6101 C.ar    1  UNL1        0.0376
      6 C         141.6291  143.5176  169.9798 C.ar    1  UNL1        0.0063
      7 N         145.6137  145.2188  171.6556 N.ar    1  UNL1       -0.1495
      8 N         146.4437  144.3175  170.7903 N.ar    1  UNL1       -0.0450
      9 N         145.5314  143.3004  170.1713 N.ar    1  UNL1       -0.1077
     10 C         144.1376  143.5731  170.6540 C.ar    1  UNL1        0.2058
     11 N         144.1885  144.7588  171.5714 N.ar    1  UNL1       -0.1297
     12 C         146.1201  146.3769  172.4634 C.3     1  UNL1        0.1681
     13 N         148.4213  145.3895  173.1557 N.3     1  UNL1       -0.3194
     14 C         147.1818  146.1606  173.5007 C.3     1  UNL1        0.0938
     15 H         149.0294  145.3401  173.9731 H       1  UNL1        0.1189
     16 H         148.9125  145.8582  172.3944 H       1  UNL1        0.1189
     17 O         139.2220  140.4667  169.1751 O.3     1  UNL1       -0.4535
     18 C         139.1427  139.7764  167.8458 C.ar    1  UNL1        0.1454
     19 C         138.0085  138.8392  167.5538 C.ar    1  UNL1        0.0384
     20 C         137.9293  138.1489  166.2244 C.ar    1  UNL1        0.0145
     21 C         138.9842  138.3958  165.1870 C.ar    1  UNL1        0.0579
     22 CL        138.9049  137.7055  163.8577 Cl      1  UNL1       -0.0822
     23 C         140.1184  139.3330  165.4790 C.ar    1  UNL1        0.0145
     24 C         140.1976  140.0233  166.8083 C.ar    1  UNL1        0.0384
@<TRIPOS>BOND
     1    13    14    1
     2    14    12    1
     3    12     7    1
     4     7     8   ar
     5     8     9   ar
     6     9    10   ar
     7    10     1    1
     8     1     2   ar
     9     2     3   ar
    10     3     4   ar
    11     4    17    1
    12    17    18    1
    13    18    19   ar
    14    19    20   ar
    15    20    21   ar
    16    21    22    1
    17    21    23   ar
    18    23    24   ar
    19     4     5   ar
    20     5     6   ar
    21    10    11   ar
    22    11     7   ar
    23     6     1   ar
    24    24    18   ar
    25    13    15    1
    26    13    16    1
@<TRIPOS>MOLECULE
*****
 24 26 0 0 0
SMALL
GASTEIGER

@<TRIPOS>ATOM
      1 C         138.6649  139.0368  162.9276 C.ar    1  UNL1        0.0395
      2 C         138.3332  140.2903  163.6817 C.ar    1  UNL1        0.0063
      3 C         138.2758  140.2709  165.1804 C.ar    1  UNL1        0.0376
      4 C         138.5500  138.9981  165.9251 C.ar    1  UNL1        0.1453
      5 C         138.8817  137.7446  165.1711 C.ar    1  UNL1        0.0376
      6 C         138.9392  137.7639  163.6724 C.ar    1  UNL1        0.0063
      7 N         139.4135  138.6397  159.1398 N.ar    1  UNL1       -0.1495
      8 N         138.2081  139.5319  159.1051 N.ar    1  UNL1       -0.0450
      9 N         137.7810  139.7892  160.5198 N.ar    1  UNL1       -0.1077
     10 C         138.7224  139.0560  161.4288 C.ar    1  UNL1        0.2058
     11 N         139.7313  138.3456  160.5759 N.ar    1  UNL1       -0.1297
     12 C         140.1684  138.1309  157.9477 C.3     1  UNL1        0.1681
     13 N         138.9111  136.7600  156.1339 N.3     1  UNL1       -0.3194
     14 C         139.4954  138.0572  156.6092 C.3     1  UNL1        0.0938
     15 H         138.4966  136.8916  155.2112 H       1  UNL1        0.1189
     16 H         138.1925  136.4507  156.7884 H       1  UNL1        0.1189
     17 O         138.4925  138.9788  167.4240 O.3     1  UNL1       -0.4535
     18 C         139.4369  139.8284  168.2217 C.ar    1  UNL1        0.1454
     19 C         140.8365  140.0560  167.7327 C.ar    1  UNL1        0.0384
     20 C         141.7809  140.9056  168.5305 C.ar    1  UNL1        0.0145
     21 C         141.3255  141.5275  169.8173 C.ar    1  UNL1        0.0579
     22 CL        142.2698  142.3771  170.6150 Cl      1  UNL1       -0.0822
     23 C         139.9259  141.2999  170.3063 C.ar    1  UNL1        0.0145
     24 C         138.9815  140.4503  169.5085 C.ar    1  UNL1        0.0384
@<TRIPOS>BOND
     1    13    14    1
     2    14    12    1
     3    12     7    1
     4     7     8   ar
     5     8     9   ar
     6     9    10   ar
     7    10     1    1
     8     1     2   ar
     9     2     3   ar
    10     3     4   ar
    11     4    17    1
    12    17    18    1
    13    18    19   ar
    14    19    20   ar
    15    20    21   ar
    16    21    22    1
    17    21    23   ar
    18    23    24   ar
    19     4     5   ar
    20     5     6   ar
    21    10    11   ar
    22    11     7   ar
    23     6     1   ar
    24    24    18   ar
    25    13    15    1
    26    13    16    1
@<TRIPOS>MOLECULE
*****
 24 26 0 0 0
SMALL
GASTEIGER

@<TRIPOS>ATOM
      1 C         139.8468  139.4438  166.8749 C.ar    1  UNL1        0.0395
      2 C         141.0361  139.4927  165.9622 C.ar    1  UNL1        0.0063
      3 C         140.9678  138.8549  164.6063 C.ar    1  UNL1        0.0376
      4 C         139.7100  138.1682  164.1631 C.ar    1  UNL1        0.1453
      5 C         138.5207  138.1192  165.0757 C.ar    1  UNL1        0.0376
      6 C         138.5890  138.7570  166.4316 C.ar    1  UNL1        0.0063
      7 N         140.6424  141.4291  170.1139 N.ar    1  UNL1       -0.1495
      8 N         139.3979  140.6970  170.5209 N.ar    1  UNL1       -0.0450
      9 N         138.9485  139.8643  169.3571 N.ar    1  UNL1       -0.1077
     10 C         139.9151  140.0816  168.2308 C.ar    1  UNL1        0.2058
     11 N         140.9619  141.0487  168.6986 N.ar    1  UNL1       -0.1297
     12 C         141.4291  142.3753  170.9717 C.3     1  UNL1        0.1681
     13 N         143.4236  144.0210  171.2235 N.3     1  UNL1       -0.3194
     14 C         142.7556  142.8909  170.4979 C.3     1  UNL1        0.0938
     15 H         144.3098  144.2405  170.7686 H       1  UNL1        0.1189
     16 H         143.5964  143.7488  172.1912 H       1  UNL1        0.1189
     17 O         139.6417  137.5303  162.8071 O.3     1  UNL1       -0.4535
     18 C         139.2005  138.3354  161.6210 C.ar    1  UNL1        0.1454
     19 C         137.8637  139.0159  161.6316 C.ar    1  UNL1        0.0384
     20 C         137.4225  139.8210  160.4454 C.ar    1  UNL1        0.0145
     21 C         138.3180  139.9457  159.2485 C.ar    1  UNL1        0.0579
     22 CL        137.8767  140.7508  158.0624 Cl      1  UNL1       -0.0822
     23 C         139.6547  139.2653  159.2379 C.ar    1  UNL1        0.0145
     24 C         140.0960  138.4602  160.4240 C.ar    1  UNL1        0.0384
@<TRIPOS>BOND
     1    13    14    1
     2    14    12    1
     3    12     7    1
     4     7     8   ar
     5     8     9   ar
     6     9    10   ar
     7    10     1    1
     8     1     2   ar
     9     2     3   ar
    10     3     4   ar
    11     4    17    1
    12    17    18    1
    13    18    19   ar
    14    19    20   ar
    15    20    21   ar
    16    21    22    1
    17    21    23   ar
    18    23    24   ar
    19     4     5   ar
    20     5     6   ar
    21    10    11   ar
    22    11     7   ar
    23     6     1   ar
    24    24    18   ar
    25    13    15    1
    26    13    16    1
@<TRIPOS>MOLECULE
*****
 24 26 0 0 0
SMALL
GASTEIGER

@<TRIPOS>ATOM
      1 C         140.9222  145.0154  160.5798 C.ar    1  UNL1        0.0395
      2 C         141.6520  143.8595  161.1971 C.ar    1  UNL1        0.0063
      3 C         141.4061  143.4972  162.6317 C.ar    1  UNL1        0.0376
      4 C         140.4304  144.2909  163.4491 C.ar    1  UNL1        0.1453
      5 C         139.7006  145.4469  162.8318 C.ar    1  UNL1        0.0376
      6 C         139.9465  145.8091  161.3972 C.ar    1  UNL1        0.0063
      7 N         140.8283  146.1396  156.8659 N.ar    1  UNL1       -0.1495
      8 N         142.2645  145.7310  157.0088 N.ar    1  UNL1       -0.0450
      9 N         142.4745  145.2602  158.4174 N.ar    1  UNL1       -0.1077
     10 C         141.1680  145.3778  159.1451 C.ar    1  UNL1        0.2058
     11 N         140.1507  145.9213  158.1861 N.ar    1  UNL1       -0.1297
     12 C         140.1830  146.6729  155.6212 C.3     1  UNL1        0.1681
     13 N         138.7065  148.3930  156.8905 N.3     1  UNL1       -0.3194
     14 C         138.9252  147.4845  155.7171 C.3     1  UNL1        0.0938
     15 H         137.8067  148.8634  156.7931 H       1  UNL1        0.1189
     16 H         139.4518  149.0884  156.9255 H       1  UNL1        0.1189
     17 O         140.1846  143.9286  164.8838 O.3     1  UNL1       -0.4535
     18 C         139.6561  142.5692  165.2341 C.ar    1  UNL1        0.1454
     19 C         140.1969  141.8389  166.4275 C.ar    1  UNL1        0.0384
     20 C         139.6684  140.4794  166.7778 C.ar    1  UNL1        0.0145
     21 C         138.5992  139.8503  165.9346 C.ar    1  UNL1        0.0579
     22 CL        138.0707  138.4909  166.2849 Cl      1  UNL1       -0.0822
     23 C         138.0584  140.5806  164.7412 C.ar    1  UNL1        0.0145
     24 C         138.5868  141.9400  164.3910 C.ar    1  UNL1        0.0384
@<TRIPOS>BOND
     1    13    14    1
     2    14    12    1
     3    12     7    1
     4     7     8   ar
     5     8     9   ar
     6     9    10   ar
     7    10     1    1
     8     1     2   ar
     9     2     3   ar
    10     3     4   ar
    11     4    17    1
    12    17    18    1
    13    18    19   ar
    14    19    20   ar
    15    20    21   ar
    16    21    22    1
    17    21    23   ar
    18    23    24   ar
    19     4     5   ar
    20     5     6   ar
    21    10    11   ar
    22    11     7   ar
    23     6     1   ar
    24    24    18   ar
    25    13    15    1
    26    13    16    1
@<TRIPOS>MOLECULE
*****
 24 26 0 0 0
SMALL
GASTEIGER

@<TRIPOS>ATOM
      1 C         139.2543  139.8899  166.7866 C.ar    1  UNL1        0.0395
      2 C         139.2560  140.9309  165.7068 C.ar    1  UNL1        0.0063
      3 C         138.9294  140.5467  164.2941 C.ar    1  UNL1        0.0376
      4 C         138.6013  139.1214  163.9613 C.ar    1  UNL1        0.1453
      5 C         138.5997  138.0803  165.0411 C.ar    1  UNL1        0.0376
      6 C         138.9262  138.4645  166.4538 C.ar    1  UNL1        0.0063
      7 N         140.6829  141.2453  170.1314 N.ar    1  UNL1       -0.1495
      8 N         139.4836  140.4852  170.6153 N.ar    1  UNL1       -0.0450
      9 N         138.8025  139.8850  169.4212 N.ar    1  UNL1       -0.1077
     10 C         139.5809  140.2741  168.1994 C.ar    1  UNL1        0.2058
     11 N         140.7430  141.1147  168.6383 N.ar    1  UNL1       -0.1297
     12 C         141.6520  142.0028  170.9899 C.3     1  UNL1        0.1681
     13 N         143.3533  143.9529  171.2196 N.3     1  UNL1       -0.3194
     14 C         142.6134  142.9686  170.3630 C.3     1  UNL1        0.0938
     15 H         143.9588  144.5266  170.6325 H       1  UNL1        0.1189
     16 H         143.9195  143.4505  171.9033 H       1  UNL1        0.1189
     17 O         138.2748  138.7372  162.5485 O.3     1  UNL1       -0.4535
     18 C         139.3704  138.6202  161.5308 C.ar    1  UNL1        0.1454
     19 C         140.7270  138.1298  161.9421 C.ar    1  UNL1        0.0384
     20 C         141.8226  138.0129  160.9243 C.ar    1  UNL1        0.0145
     21 C         141.5617  138.3863  159.4951 C.ar    1  UNL1        0.0579
     22 CL        142.6573  138.2694  158.4774 Cl      1  UNL1       -0.0822
     23 C         140.2051  138.8767  159.0838 C.ar    1  UNL1        0.0145
     24 C         139.1095  138.9937  160.1016 C.ar    1  UNL1        0.0384
@<TRIPOS>BOND
     1    13    14    1
     2    14    12    1
     3    12     7    1
     4     7     8   ar
     5     8     9   ar
     6     9    10   ar
     7    10     1    1
     8     1     2   ar
     9     2     3   ar
    10     3     4   ar
    11     4    17    1
    12    17    18    1
    13    18    19   ar
    14    19    20   ar
    15    20    21   ar
    16    21    22    1
    17    21    23   ar
    18    23    24   ar
    19     4     5   ar
    20     5     6   ar
    21    10    11   ar
    22    11     7   ar
    23     6     1   ar
    24    24    18   ar
    25    13    15    1
    26    13    16    1
@<TRIPOS>MOLECULE
*****
 24 26 0 0 0
SMALL
GASTEIGER

@<TRIPOS>ATOM
      1 C         141.5327  139.1596  166.4305 C.ar    1  UNL1        0.0395
      2 C         140.0613  139.3551  166.2143 C.ar    1  UNL1        0.0063
      3 C         139.3938  138.7562  165.0119 C.ar    1  UNL1        0.0376
      4 C         140.1978  137.9619  164.0257 C.ar    1  UNL1        0.1453
      5 C         141.6692  137.7664  164.2418 C.ar    1  UNL1        0.0376
      6 C         142.3366  138.3653  165.4442 C.ar    1  UNL1        0.0063
      7 N         143.2069  141.3556  169.1582 N.ar    1  UNL1       -0.1495
      8 N         143.2478  140.0044  169.8084 N.ar    1  UNL1       -0.0450
      9 N         142.6256  139.0174  168.8658 N.ar    1  UNL1       -0.1077
     10 C         142.2002  139.7585  167.6330 C.ar    1  UNL1        0.2058
     11 N         142.5594  141.2036  167.8137 N.ar    1  UNL1       -0.1297
     12 C         143.7228  142.6343  169.7488 C.3     1  UNL1        0.1681
     13 N         142.1448  142.4693  171.8061 N.3     1  UNL1       -0.3194
     14 C         142.9809  143.2942  170.8731 C.3     1  UNL1        0.0938
     15 H         141.7155  143.0762  172.5046 H       1  UNL1        0.1189
     16 H         142.7347  141.7795  172.2715 H       1  UNL1        0.1189
     17 O         139.5303  137.3630  162.8232 O.3     1  UNL1       -0.4535
     18 C         139.1287  138.2394  161.6740 C.ar    1  UNL1        0.1454
     19 C         137.7846  138.9052  161.6726 C.ar    1  UNL1        0.0384
     20 C         137.3830  139.7816  160.5233 C.ar    1  UNL1        0.0145
     21 C         138.3255  139.9922  159.3756 C.ar    1  UNL1        0.0579
     22 CL        137.9239  140.8686  158.2265 Cl      1  UNL1       -0.0822
     23 C         139.6697  139.3264  159.3771 C.ar    1  UNL1        0.0145
     24 C         140.0713  138.4500  160.5263 C.ar    1  UNL1        0.0384
@<TRIPOS>BOND
     1    13    14    1
     2    14    12    1
     3    12     7    1
     4     7     8   ar
     5     8     9   ar
     6     9    10   ar
     7    10     1    1
     8     1     2   ar
     9     2     3   ar
    10     3     4   ar
    11     4    17    1
    12    17    18    1
    13    18    19   ar
    14    19    20   ar
    15    20    21   ar
    16    21    22    1
    17    21    23   ar
    18    23    24   ar
    19     4     5   ar
    20     5     6   ar
    21    10    11   ar
    22    11     7   ar
    23     6     1   ar
    24    24    18   ar
    25    13    15    1
    26    13    16    1
@<TRIPOS>MOLECULE
*****
 24 26 0 0 0
SMALL
GASTEIGER

@<TRIPOS>ATOM
      1 C         139.0626  139.4668  165.9501 C.ar    1  UNL1        0.0395
      2 C         138.4378  140.5770  165.1583 C.ar    1  UNL1        0.0063
      3 C         138.0250  140.3431  163.7354 C.ar    1  UNL1        0.0376
      4 C         138.2369  138.9990  163.1042 C.ar    1  UNL1        0.1453
      5 C         138.8617  137.8887  163.8960 C.ar    1  UNL1        0.0376
      6 C         139.2745  138.1226  165.3189 C.ar    1  UNL1        0.0063
      7 N         140.7971  140.2553  169.3317 N.ar    1  UNL1       -0.1495
      8 N         139.4243  139.8656  169.7940 N.ar    1  UNL1       -0.0450
      9 N         138.6075  139.5228  168.5835 N.ar    1  UNL1       -0.1077
     10 C         139.4754  139.7006  167.3731 C.ar    1  UNL1        0.2058
     11 N         140.8286  140.1533  167.8355 N.ar    1  UNL1       -0.1297
     12 C         141.9379  140.6735  170.2112 C.3     1  UNL1        0.1681
     13 N         140.5202  142.0973  171.8583 N.3     1  UNL1       -0.3194
     14 C         141.7969  141.8705  171.1042 C.3     1  UNL1        0.0938
     15 H         140.5989  142.9508  172.4112 H       1  UNL1        0.1189
     16 H         140.3460  141.3059  172.4777 H       1  UNL1        0.1189
     17 O         137.8240  138.7651  161.6812 O.3     1  UNL1       -0.4535
     18 C         138.7665  139.0973  160.5626 C.ar    1  UNL1        0.1454
     19 C         138.3178  139.9901  159.4439 C.ar    1  UNL1        0.0384
     20 C         139.2604  140.3223  158.3252 C.ar    1  UNL1        0.0145
     21 C         140.6516  139.7615  158.3253 C.ar    1  UNL1        0.0579
     22 CL        141.5941  140.0937  157.2067 Cl      1  UNL1       -0.0822
     23 C         141.1003  138.8687  159.4439 C.ar    1  UNL1        0.0145
     24 C         140.1578  138.5365  160.5626 C.ar    1  UNL1        0.0384
@<TRIPOS>BOND
     1    13    14    1
     2    14    12    1
     3    12     7    1
     4     7     8   ar
     5     8     9   ar
     6     9    10   ar
     7    10     1    1
     8     1     2   ar
     9     2     3   ar
    10     3     4   ar
    11     4    17    1
    12    17    18    1
    13    18    19   ar
    14    19    20   ar
    15    20    21   ar
    16    21    22    1
    17    21    23   ar
    18    23    24   ar
    19     4     5   ar
    20     5     6   ar
    21    10    11   ar
    22    11     7   ar
    23     6     1   ar
    24    24    18   ar
    25    13    15    1
    26    13    16    1
@<TRIPOS>MOLECULE
*****
 24 26 0 0 0
SMALL
GASTEIGER

@<TRIPOS>ATOM
      1 C         142.8332  138.4398  162.7497 C.ar    1  UNL1        0.0395
      2 C         141.8059  137.8731  163.6843 C.ar    1  UNL1        0.0063
      3 C         142.0064  137.9710  165.1676 C.ar    1  UNL1        0.0376
      4 C         143.2342  138.6355  165.7163 C.ar    1  UNL1        0.1453
      5 C         144.2614  139.2022  164.7817 C.ar    1  UNL1        0.0376
      6 C         144.0609  139.1044  163.2984 C.ar    1  UNL1        0.0063
      7 N         141.6038  138.3816  159.0686 N.ar    1  UNL1       -0.1495
      8 N         143.0449  138.0015  158.8989 N.ar    1  UNL1       -0.0450
      9 N         143.6808  137.9770  160.2572 N.ar    1  UNL1       -0.1077
     10 C         142.6327  138.3420  161.2664 C.ar    1  UNL1        0.2058
     11 N         141.3491  138.5921  160.5317 N.ar    1  UNL1       -0.1297
     12 C         140.5946  138.5259  157.9683 C.3     1  UNL1        0.1681
     13 N         139.2239  136.9419  156.4313 N.3     1  UNL1       -0.3194
     14 C         140.5418  137.5147  156.8616 C.3     1  UNL1        0.0938
     15 H         139.3739  136.2755  155.6738 H       1  UNL1        0.1189
     16 H         138.6159  137.6940  156.1071 H       1  UNL1        0.1189
     17 O         143.4346  138.7333  167.1997 O.3     1  UNL1       -0.4535
     18 C         142.5582  139.6353  168.0171 C.ar    1  UNL1        0.1454
     19 C         142.2607  139.2969  169.4478 C.ar    1  UNL1        0.0384
     20 C         141.3842  140.1990  170.2652 C.ar    1  UNL1        0.0145
     21 C         140.8053  141.4394  169.6519 C.ar    1  UNL1        0.0579
     22 CL        139.9288  142.3414  170.4693 Cl      1  UNL1       -0.0822
     23 C         141.1028  141.7778  168.2211 C.ar    1  UNL1        0.0145
     24 C         141.9792  140.8758  167.4037 C.ar    1  UNL1        0.0384
@<TRIPOS>BOND
     1    13    14    1
     2    14    12    1
     3    12     7    1
     4     7     8   ar
     5     8     9   ar
     6     9    10   ar
     7    10     1    1
     8     1     2   ar
     9     2     3   ar
    10     3     4   ar
    11     4    17    1
    12    17    18    1
    13    18    19   ar
    14    19    20   ar
    15    20    21   ar
    16    21    22    1
    17    21    23   ar
    18    23    24   ar
    19     4     5   ar
    20     5     6   ar
    21    10    11   ar
    22    11     7   ar
    23     6     1   ar
    24    24    18   ar
    25    13    15    1
    26    13    16    1
