@<TRIPOS>MOLECULE
*****
 28 32 0 0 0
SMALL
GASTEIGER

@<TRIPOS>ATOM
      1 C         141.1598  143.9994  161.2914 C.2     1  UNL1        0.1253
      2 C         140.8016  145.3016  160.6389 C.2     1  UNL1        0.0701
      3 C         139.6659  146.1217  161.1751 C.2     1  UNL1        0.2372
      4 N         138.8884  145.6396  162.3638 N.2     1  UNL1       -0.0302
      5 C         139.2465  144.3374  163.0163 C.2     1  UNL1        0.4107
      6 N         138.6653  143.6110  164.1930 N.2     1  UNL1        0.0120
      7 C         139.4419  142.3419  164.3840 C.2     1  UNL1        0.3752
      8 N         140.5030  142.2840  163.3255 N.2     1  UNL1       -0.0448
      9 C         140.3822  143.5173  162.4801 C.3     1  UNL1        0.3643
     10 C         139.1997  141.3117  165.4471 C.ar    1  UNL1        0.0896
     11 C         138.2748  140.1614  165.1800 C.ar    1  UNL1        0.0078
     12 C         138.0326  139.1312  166.2430 C.ar    1  UNL1        0.0017
     13 C         138.7154  139.2513  167.5731 C.ar    1  UNL1        0.0172
     14 C         139.6403  140.4016  167.8403 C.ar    1  UNL1        0.0602
     15 C         139.8825  141.4318  166.7773 C.ar    1  UNL1        0.0247
     16 C         140.8402  142.4477  167.3259 C.ar    1  UNL1        0.0203
     17 C         141.1899  142.0453  168.7279 C.ar    1  UNL1        0.0760
     18 N         140.4483  140.7807  169.0458 N.ar    1  UNL1       -0.3240
     19 C         140.5049  140.0276  170.3419 C.3     1  UNL1        0.1305
     20 C         143.5543  141.4174  159.6588 C.ar    1  UNL1        0.0339
     21 C         144.5323  142.4168  160.2018 C.ar    1  UNL1        0.1191
     22 N         143.7543  143.5056  160.8794 N.ar    1  UNL1       -0.1639
     23 N         142.2956  143.1792  160.7553 N.ar    1  UNL1       -0.2276
     24 C         142.1719  141.8886  160.0009 C.ar    1  UNL1        0.0988
     25 C         143.8983  140.1665  158.9059 C.3     1  UNL1        0.1024
     26 C         142.6869  137.8839  158.6372 C.3     1  UNL1        0.0899
     27 N         143.5127  138.8272  159.4607 N.3     1  UNL1       -0.2664
     28 C         143.9528  138.4314  160.8389 C.3     1  UNL1        0.0899
@<TRIPOS>BOND
     1    26    27    1
     2    27    28    1
     3    27    25    1
     4    25    20    1
     5    20    21   ar
     6    21    22   ar
     7    22    23   ar
     8    23     1    1
     9     1     2    2
    10     2     3    1
    11     3     4    2
    12     4     5    1
    13     5     6    2
    14     6     7    1
    15     7    10    1
    16    10    11   ar
    17    11    12   ar
    18    12    13   ar
    19    13    14   ar
    20    14    15   ar
    21    15    16   ar
    22    16    17   ar
    23    17    18   ar
    24    18    19    1
    25     7     8    2
    26     8     9    1
    27    23    24   ar
    28    24    20   ar
    29     9     1    1
    30     9     5    1
    31    15    10   ar
    32    18    14   ar
@<TRIPOS>MOLECULE
*****
 28 32 0 0 0
SMALL
GASTEIGER

@<TRIPOS>ATOM
      1 C         139.3202  140.2148  162.1826 C.2     1  UNL1        0.1253
      2 C         138.8736  139.1740  161.1992 C.2     1  UNL1        0.0701
      3 C         138.4414  137.8216  161.6831 C.2     1  UNL1        0.2372
      4 N         138.4558  137.5100  163.1503 N.2     1  UNL1       -0.0302
      5 C         138.9024  138.5509  164.1337 C.2     1  UNL1        0.4107
      6 N         139.0220  138.5335  165.6288 N.2     1  UNL1        0.0120
      7 C         139.5281  139.8752  166.0690 C.2     1  UNL1        0.3752
      8 N         139.7214  140.7218  164.8459 N.2     1  UNL1       -0.0448
      9 C         139.3346  139.9033  163.6498 C.3     1  UNL1        0.3643
     10 C         139.7943  140.2963  167.4839 C.ar    1  UNL1        0.0896
     11 C         138.8363  139.9139  168.5730 C.ar    1  UNL1        0.0078
     12 C         139.1024  140.3350  169.9878 C.ar    1  UNL1        0.0017
     13 C         140.3265  141.1384  170.3136 C.ar    1  UNL1        0.0172
     14 C         141.2845  141.5207  169.2245 C.ar    1  UNL1        0.0602
     15 C         141.0183  141.0997  167.8096 C.ar    1  UNL1        0.0247
     16 C         142.1343  141.6207  166.9533 C.ar    1  UNL1        0.0203
     17 C         143.0901  142.3637  167.8388 C.ar    1  UNL1        0.0760
     18 N         142.5648  142.3020  169.2426 N.ar    1  UNL1       -0.3240
     19 C         143.2073  142.9140  170.4520 C.3     1  UNL1        0.1305
     20 C         141.0874  143.5498  161.2769 C.ar    1  UNL1        0.0339
     21 C         139.7478  143.7471  160.6315 C.ar    1  UNL1        0.1191
     22 N         138.9228  142.5218  160.8922 N.ar    1  UNL1       -0.1639
     23 N         139.7525  141.5673  161.6988 N.ar    1  UNL1       -0.2276
     24 C         141.0903  142.2027  161.9365 C.ar    1  UNL1        0.0988
     25 C         142.2245  144.5281  161.2648 C.3     1  UNL1        0.1024
     26 C         143.5165  145.0725  163.4522 C.3     1  UNL1        0.0899
     27 N         143.4072  144.3144  162.1624 N.3     1  UNL1       -0.2664
     28 C         144.4806  143.3428  161.7702 C.3     1  UNL1        0.0899
@<TRIPOS>BOND
     1    26    27    1
     2    27    28    1
     3    27    25    1
     4    25    20    1
     5    20    21   ar
     6    21    22   ar
     7    22    23   ar
     8    23     1    1
     9     1     2    2
    10     2     3    1
    11     3     4    2
    12     4     5    1
    13     5     6    2
    14     6     7    1
    15     7    10    1
    16    10    11   ar
    17    11    12   ar
    18    12    13   ar
    19    13    14   ar
    20    14    15   ar
    21    15    16   ar
    22    16    17   ar
    23    17    18   ar
    24    18    19    1
    25     7     8    2
    26     8     9    1
    27    23    24   ar
    28    24    20   ar
    29     9     1    1
    30     9     5    1
    31    15    10   ar
    32    18    14   ar
@<TRIPOS>MOLECULE
*****
 28 32 0 0 0
SMALL
GASTEIGER

@<TRIPOS>ATOM
      1 C         142.9749  138.6950  158.1174 C.2     1  UNL1        0.1253
      2 C         143.0882  140.0704  157.5296 C.2     1  UNL1        0.0701
      3 C         143.0486  140.2556  156.0416 C.2     1  UNL1        0.2372
      4 N         142.8958  139.0655  155.1415 N.2     1  UNL1       -0.0302
      5 C         142.7825  137.6902  155.7292 C.2     1  UNL1        0.4107
      6 N         142.6241  136.3388  155.0979 N.2     1  UNL1        0.0120
      7 C         142.5658  135.3182  156.1958 C.2     1  UNL1        0.3752
      8 N         142.6881  136.0389  157.5056 N.2     1  UNL1       -0.0448
      9 C         142.8220  137.5049  157.2172 C.3     1  UNL1        0.3643
     10 C         142.4122  133.8370  156.0154 C.ar    1  UNL1        0.0896
     11 C         141.3114  133.2969  155.1513 C.ar    1  UNL1        0.0078
     12 C         141.1577  131.8158  154.9709 C.ar    1  UNL1        0.0017
     13 C         142.1048  130.8748  155.6545 C.ar    1  UNL1        0.0172
     14 C         143.2056  131.4149  156.5186 C.ar    1  UNL1        0.0602
     15 C         143.3593  132.8960  156.6990 C.ar    1  UNL1        0.0247
     16 C         144.5313  133.1335  157.6046 C.ar    1  UNL1        0.0203
     17 C         145.1019  131.7992  157.9838 C.ar    1  UNL1        0.0760
     18 N         144.2826  130.7370  157.3126 N.ar    1  UNL1       -0.3240
     19 C         144.5019  129.2567  157.4172 C.3     1  UNL1        0.1305
     20 C         142.3504  138.0322  161.8905 C.ar    1  UNL1        0.0339
     21 C         143.8003  138.4169  161.8999 C.ar    1  UNL1        0.1191
     22 N         144.2107  138.7119  160.4876 N.ar    1  UNL1       -0.1639
     23 N         143.0144  138.5097  159.6054 N.ar    1  UNL1       -0.2276
     24 C         141.8648  138.0896  160.4725 C.ar    1  UNL1        0.0988
     25 C         141.5303  137.6562  163.0888 C.3     1  UNL1        0.1024
     26 C         138.9325  137.6953  163.0823 C.3     1  UNL1        0.0899
     27 N         140.2411  138.3700  163.3693 N.3     1  UNL1       -0.2664
     28 C         140.2606  139.7583  163.9367 C.3     1  UNL1        0.0899
@<TRIPOS>BOND
     1    26    27    1
     2    27    28    1
     3    27    25    1
     4    25    20    1
     5    20    21   ar
     6    21    22   ar
     7    22    23   ar
     8    23     1    1
     9     1     2    2
    10     2     3    1
    11     3     4    2
    12     4     5    1
    13     5     6    2
    14     6     7    1
    15     7    10    1
    16    10    11   ar
    17    11    12   ar
    18    12    13   ar
    19    13    14   ar
    20    14    15   ar
    21    15    16   ar
    22    16    17   ar
    23    17    18   ar
    24    18    19    1
    25     7     8    2
    26     8     9    1
    27    23    24   ar
    28    24    20   ar
    29     9     1    1
    30     9     5    1
    31    15    10   ar
    32    18    14   ar
@<TRIPOS>MOLECULE
*****
 28 32 0 0 0
SMALL
GASTEIGER

@<TRIPOS>ATOM
      1 C         139.8353  144.0961  157.3558 C.2     1  UNL1        0.1253
      2 C         140.6488  144.7312  156.2673 C.2     1  UNL1        0.0701
      3 C         141.7945  145.6340  156.6170 C.2     1  UNL1        0.2372
      4 N         142.1267  145.9016  158.0551 N.2     1  UNL1       -0.0302
      5 C         141.3131  145.2665  159.1435 C.2     1  UNL1        0.4107
      6 N         141.4028  145.3436  160.6388 N.2     1  UNL1        0.0120
      7 C         140.3125  144.4885  161.2133 C.2     1  UNL1        0.3752
      8 N         139.5490  143.8829  160.0731 N.2     1  UNL1       -0.0448
      9 C         140.1674  144.3637  158.7938 C.3     1  UNL1        0.3643
     10 C         140.0346  144.2764  162.6721 C.ar    1  UNL1        0.0896
     11 C         138.7571  144.7827  163.2735 C.ar    1  UNL1        0.0078
     12 C         138.4792  144.5705  164.7322 C.ar    1  UNL1        0.0017
     13 C         139.4787  143.8521  165.5893 C.ar    1  UNL1        0.0172
     14 C         140.7561  143.3458  164.9879 C.ar    1  UNL1        0.0602
     15 C         141.0341  143.5579  163.5292 C.ar    1  UNL1        0.0247
     16 C         142.3703  142.9509  163.2189 C.ar    1  UNL1        0.0203
     17 C         142.9181  142.3637  164.4857 C.ar    1  UNL1        0.0760
     18 N         141.9205  142.6077  165.5790 N.ar    1  UNL1       -0.3240
     19 C         142.0624  142.1874  167.0120 C.3     1  UNL1        0.1305
     20 C         136.7191  142.2774  155.9248 C.ar    1  UNL1        0.0339
     21 C         137.1337  141.3304  157.0116 C.ar    1  UNL1        0.1191
     22 N         138.3514  141.8964  157.6800 N.ar    1  UNL1       -0.1639
     23 N         138.6895  143.1932  157.0061 N.ar    1  UNL1       -0.2276
     24 C         137.6806  143.4287  155.9214 C.ar    1  UNL1        0.0988
     25 C         135.5485  142.1037  155.0031 C.3     1  UNL1        0.1024
     26 C         135.2174  139.5724  154.5204 C.3     1  UNL1        0.0899
     27 N         134.7067  140.8648  155.0851 N.3     1  UNL1       -0.2664
     28 C         133.3544  140.9184  155.7318 C.3     1  UNL1        0.0899
@<TRIPOS>BOND
     1    26    27    1
     2    27    28    1
     3    27    25    1
     4    25    20    1
     5    20    21   ar
     6    21    22   ar
     7    22    23   ar
     8    23     1    1
     9     1     2    2
    10     2     3    1
    11     3     4    2
    12     4     5    1
    13     5     6    2
    14     6     7    1
    15     7    10    1
    16    10    11   ar
    17    11    12   ar
    18    12    13   ar
    19    13    14   ar
    20    14    15   ar
    21    15    16   ar
    22    16    17   ar
    23    17    18   ar
    24    18    19    1
    25     7     8    2
    26     8     9    1
    27    23    24   ar
    28    24    20   ar
    29     9     1    1
    30     9     5    1
    31    15    10   ar
    32    18    14   ar
@<TRIPOS>MOLECULE
*****
 28 32 0 0 0
SMALL
GASTEIGER

@<TRIPOS>ATOM
      1 C         139.8541  144.4423  157.0248 C.2     1  UNL1        0.1253
      2 C         140.8183  145.0598  156.0559 C.2     1  UNL1        0.0701
      3 C         142.0646  145.7254  156.5593 C.2     1  UNL1        0.2372
      4 N         142.3468  145.7735  158.0318 N.2     1  UNL1       -0.0302
      5 C         141.3826  145.1560  159.0007 C.2     1  UNL1        0.4107
      6 N         141.3932  145.0489  160.4969 N.2     1  UNL1        0.0120
      7 C         140.1534  144.3172  160.9181 C.2     1  UNL1        0.3752
      8 N         139.3765  143.9719  159.6823 N.2     1  UNL1       -0.0448
      9 C         140.1363  144.4903  158.4973 C.3     1  UNL1        0.3643
     10 C         139.7597  143.9884  162.3277 C.ar    1  UNL1        0.0896
     11 C         139.6450  145.0813  163.3487 C.ar    1  UNL1        0.0078
     12 C         139.2513  144.7526  164.7582 C.ar    1  UNL1        0.0017
     13 C         138.9722  143.3309  165.1468 C.ar    1  UNL1        0.0172
     14 C         139.0868  142.2380  164.1258 C.ar    1  UNL1        0.0602
     15 C         139.4806  142.5667  162.7163 C.ar    1  UNL1        0.0247
     16 C         139.5119  141.2875  161.9334 C.ar    1  UNL1        0.0203
     17 C         139.1376  140.1683  162.8591 C.ar    1  UNL1        0.0760
     18 N         138.8748  140.7557  164.2141 N.ar    1  UNL1       -0.3240
     19 C         138.4710  139.9943  165.4419 C.3     1  UNL1        0.1305
     20 C         136.8254  142.1629  156.1901 C.ar    1  UNL1        0.0339
     21 C         136.5539  143.3418  155.3032 C.ar    1  UNL1        0.1191
     22 N         137.6555  144.3392  155.5080 N.ar    1  UNL1       -0.1639
     23 N         138.6077  143.7766  156.5214 N.ar    1  UNL1       -0.2276
     24 C         138.0946  142.4316  156.9429 C.ar    1  UNL1        0.0988
     25 C         135.9765  140.9314  156.3041 C.3     1  UNL1        0.1024
     26 C         133.4684  140.9533  155.6266 C.3     1  UNL1        0.0899
     27 N         134.9019  140.6649  155.2921 N.3     1  UNL1       -0.2664
     28 C         135.2608  140.1100  153.9455 C.3     1  UNL1        0.0899
@<TRIPOS>BOND
     1    26    27    1
     2    27    28    1
     3    27    25    1
     4    25    20    1
     5    20    21   ar
     6    21    22   ar
     7    22    23   ar
     8    23     1    1
     9     1     2    2
    10     2     3    1
    11     3     4    2
    12     4     5    1
    13     5     6    2
    14     6     7    1
    15     7    10    1
    16    10    11   ar
    17    11    12   ar
    18    12    13   ar
    19    13    14   ar
    20    14    15   ar
    21    15    16   ar
    22    16    17   ar
    23    17    18   ar
    24    18    19    1
    25     7     8    2
    26     8     9    1
    27    23    24   ar
    28    24    20   ar
    29     9     1    1
    30     9     5    1
    31    15    10   ar
    32    18    14   ar
@<TRIPOS>MOLECULE
*****
 28 32 0 0 0
SMALL
GASTEIGER

@<TRIPOS>ATOM
      1 C         139.7463  140.3133  161.9338 C.2     1  UNL1        0.1253
      2 C         139.2709  139.3205  160.9148 C.2     1  UNL1        0.0701
      3 C         138.6881  138.0114  161.3583 C.2     1  UNL1        0.2372
      4 N         138.5808  137.6952  162.8206 N.2     1  UNL1       -0.0302
      5 C         139.0562  138.6880  163.8395 C.2     1  UNL1        0.4107
      6 N         139.0783  138.6550  165.3390 N.2     1  UNL1        0.0120
      7 C         139.6747  139.9437  165.8223 C.2     1  UNL1        0.3752
      8 N         140.0212  140.7731  164.6215 N.2     1  UNL1       -0.0448
      9 C         139.6390  139.9970  163.3961 C.3     1  UNL1        0.3643
     10 C         139.8872  140.3343  167.2549 C.ar    1  UNL1        0.0896
     11 C         138.8908  139.9263  168.2993 C.ar    1  UNL1        0.0078
     12 C         139.1032  140.3169  169.7318 C.ar    1  UNL1        0.0017
     13 C         140.3122  141.1154  170.1200 C.ar    1  UNL1        0.0172
     14 C         141.3086  141.5234  169.0757 C.ar    1  UNL1        0.0602
     15 C         141.0962  141.1328  167.6432 C.ar    1  UNL1        0.0247
     16 C         142.2416  141.6746  166.8402 C.ar    1  UNL1        0.0203
     17 C         143.1619  142.4000  167.7765 C.ar    1  UNL1        0.0760
     18 N         142.5853  142.3065  169.1581 N.ar    1  UNL1       -0.3240
     19 C         143.1809  142.8933  170.4036 C.3     1  UNL1        0.1305
     20 C         140.5834  143.8050  160.4598 C.ar    1  UNL1        0.0339
     21 C         141.8686  143.4688  161.1564 C.ar    1  UNL1        0.1191
     22 N         141.7115  142.1199  161.7933 N.ar    1  UNL1       -0.1639
     23 N         140.3291  141.6224  161.4903 N.ar    1  UNL1       -0.2276
     24 C         139.6320  142.6639  160.6662 C.ar    1  UNL1        0.0988
     25 C         140.2995  145.0618  159.6916 C.3     1  UNL1        0.1024
     26 C         141.8751  145.8920  157.8000 C.3     1  UNL1        0.0899
     27 N         140.6489  145.1457  158.2353 N.3     1  UNL1       -0.2664
     28 C         139.7720  144.4834  157.2143 C.3     1  UNL1        0.0899
@<TRIPOS>BOND
     1    26    27    1
     2    27    28    1
     3    27    25    1
     4    25    20    1
     5    20    21   ar
     6    21    22   ar
     7    22    23   ar
     8    23     1    1
     9     1     2    2
    10     2     3    1
    11     3     4    2
    12     4     5    1
    13     5     6    2
    14     6     7    1
    15     7    10    1
    16    10    11   ar
    17    11    12   ar
    18    12    13   ar
    19    13    14   ar
    20    14    15   ar
    21    15    16   ar
    22    16    17   ar
    23    17    18   ar
    24    18    19    1
    25     7     8    2
    26     8     9    1
    27    23    24   ar
    28    24    20   ar
    29     9     1    1
    30     9     5    1
    31    15    10   ar
    32    18    14   ar
@<TRIPOS>MOLECULE
*****
 28 32 0 0 0
SMALL
GASTEIGER

@<TRIPOS>ATOM
      1 C         142.4367  138.2934  157.6304 C.2     1  UNL1        0.1253
      2 C         142.7055  139.5523  156.8605 C.2     1  UNL1        0.0701
      3 C         143.4855  139.4966  155.5805 C.2     1  UNL1        0.2372
      4 N         143.9968  138.1819  155.0705 N.2     1  UNL1       -0.0302
      5 C         143.7281  136.9229  155.8403 C.2     1  UNL1        0.4107
      6 N         144.1023  135.4925  155.5875 N.2     1  UNL1        0.0120
      7 C         143.5535  134.6642  156.7112 C.2     1  UNL1        0.3752
      8 N         142.8401  135.5827  157.6586 N.2     1  UNL1       -0.0448
      9 C         142.9480  136.9787  157.1203 C.3     1  UNL1        0.3643
     10 C         143.6935  133.1783  156.8612 C.ar    1  UNL1        0.0896
     11 C         144.7955  132.6103  157.7057 C.ar    1  UNL1        0.0078
     12 C         144.9355  131.1244  157.8557 C.ar    1  UNL1        0.0017
     13 C         143.9736  130.2066  157.1613 C.ar    1  UNL1        0.0172
     14 C         142.8717  130.7746  156.3169 C.ar    1  UNL1        0.0602
     15 C         142.7316  132.2604  156.1668 C.ar    1  UNL1        0.0247
     16 C         141.5550  132.5275  155.2755 C.ar    1  UNL1        0.0203
     17 C         140.9679  131.2067  154.8746 C.ar    1  UNL1        0.0760
     18 N         141.7817  130.1233  155.5183 N.ar    1  UNL1       -0.3240
     19 C         141.5466  128.6476  155.3863 C.3     1  UNL1        0.1305
     20 C         141.0744  138.2548  161.2647 C.ar    1  UNL1        0.0339
     21 C         139.8379  138.6148  160.4955 C.ar    1  UNL1        0.1191
     22 N         140.1978  138.6730  159.0405 N.ar    1  UNL1       -0.1639
     23 N         141.6566  138.3490  158.9104 N.ar    1  UNL1       -0.2276
     24 C         142.1983  138.0905  160.2851 C.ar    1  UNL1        0.0988
     25 C         141.1700  138.0882  162.7524 C.3     1  UNL1        0.1024
     26 C         140.2179  140.1316  164.0439 C.3     1  UNL1        0.0899
     27 N         140.1234  138.6892  163.6431 N.3     1  UNL1       -0.2664
     28 C         138.9824  137.8478  164.1331 C.3     1  UNL1        0.0899
@<TRIPOS>BOND
     1    26    27    1
     2    27    28    1
     3    27    25    1
     4    25    20    1
     5    20    21   ar
     6    21    22   ar
     7    22    23   ar
     8    23     1    1
     9     1     2    2
    10     2     3    1
    11     3     4    2
    12     4     5    1
    13     5     6    2
    14     6     7    1
    15     7    10    1
    16    10    11   ar
    17    11    12   ar
    18    12    13   ar
    19    13    14   ar
    20    14    15   ar
    21    15    16   ar
    22    16    17   ar
    23    17    18   ar
    24    18    19    1
    25     7     8    2
    26     8     9    1
    27    23    24   ar
    28    24    20   ar
    29     9     1    1
    30     9     5    1
    31    15    10   ar
    32    18    14   ar
@<TRIPOS>MOLECULE
*****
 28 32 0 0 0
SMALL
GASTEIGER

@<TRIPOS>ATOM
      1 C         140.8963  139.4105  161.9929 C.2     1  UNL1        0.1253
      2 C         140.1597  138.6909  160.9022 C.2     1  UNL1        0.0701
      3 C         138.8597  138.0051  161.2014 C.2     1  UNL1        0.2372
      4 N         138.2963  138.0388  162.5911 N.2     1  UNL1       -0.0302
      5 C         139.0330  138.7584  163.6818 C.2     1  UNL1        0.4107
      6 N         138.7264  138.9601  165.1362 N.2     1  UNL1        0.0120
      7 C         139.8370  139.7706  165.7360 C.2     1  UNL1        0.3752
      8 N         140.8300  140.0698  164.6522 N.2     1  UNL1       -0.0448
      9 C         140.3330  139.4442  163.3826 C.3     1  UNL1        0.3643
     10 C         139.9371  140.2055  167.1681 C.ar    1  UNL1        0.0896
     11 C         138.8873  139.7865  168.1542 C.ar    1  UNL1        0.0078
     12 C         138.9873  140.2213  169.5863 C.ar    1  UNL1        0.0017
     13 C         140.1371  141.0752  170.0322 C.ar    1  UNL1        0.0172
     14 C         141.1868  141.4942  169.0461 C.ar    1  UNL1        0.0602
     15 C         141.0868  141.0594  167.6140 C.ar    1  UNL1        0.0247
     16 C         142.2637  141.6240  166.8749 C.ar    1  UNL1        0.0203
     17 C         143.0910  142.4077  167.8501 C.ar    1  UNL1        0.0760
     18 N         142.4255  142.3275  169.1920 N.ar    1  UNL1       -0.3240
     19 C         142.9131  142.9683  170.4577 C.3     1  UNL1        0.1305
     20 C         143.8818  141.4924  160.6444 C.ar    1  UNL1        0.0339
     21 C         144.5123  140.8111  161.8227 C.ar    1  UNL1        0.1191
     22 N         143.4707  139.9483  162.4712 N.ar    1  UNL1       -0.1639
     23 N         142.1964  140.0964  161.6937 N.ar    1  UNL1       -0.2276
     24 C         142.4505  141.0506  160.5647 C.ar    1  UNL1        0.0988
     25 C         144.5630  142.4477  159.7098 C.3     1  UNL1        0.1024
     26 C         144.9392  141.4703  157.3322 C.3     1  UNL1        0.0899
     27 N         144.2343  142.4281  158.2464 N.3     1  UNL1       -0.2664
     28 C         143.2008  143.3663  157.6973 C.3     1  UNL1        0.0899
@<TRIPOS>BOND
     1    26    27    1
     2    27    28    1
     3    27    25    1
     4    25    20    1
     5    20    21   ar
     6    21    22   ar
     7    22    23   ar
     8    23     1    1
     9     1     2    2
    10     2     3    1
    11     3     4    2
    12     4     5    1
    13     5     6    2
    14     6     7    1
    15     7    10    1
    16    10    11   ar
    17    11    12   ar
    18    12    13   ar
    19    13    14   ar
    20    14    15   ar
    21    15    16   ar
    22    16    17   ar
    23    17    18   ar
    24    18    19    1
    25     7     8    2
    26     8     9    1
    27    23    24   ar
    28    24    20   ar
    29     9     1    1
    30     9     5    1
    31    15    10   ar
    32    18    14   ar
@<TRIPOS>MOLECULE
*****
 28 32 0 0 0
SMALL
GASTEIGER

@<TRIPOS>ATOM
      1 C         139.2871  142.0063  161.1113 C.2     1  UNL1        0.1253
      2 C         138.3873  141.1336  160.2875 C.2     1  UNL1        0.0701
      3 C         137.8978  139.8278  160.8399 C.2     1  UNL1        0.2372
      4 N         138.3081  139.3948  162.2162 N.2     1  UNL1       -0.0302
      5 C         139.2079  140.2675  163.0400 C.2     1  UNL1        0.4107
      6 N         139.7760  140.1054  164.4187 N.2     1  UNL1        0.0120
      7 C         140.6167  141.3111  164.7184 C.2     1  UNL1        0.3752
      8 N         140.5681  142.2183  163.5249 N.2     1  UNL1       -0.0448
      9 C         139.6974  141.5733  162.4875 C.3     1  UNL1        0.3643
     10 C         141.3731  141.5649  165.9887 C.ar    1  UNL1        0.0896
     11 C         142.6975  142.2678  165.9452 C.ar    1  UNL1        0.0078
     12 C         143.4539  142.5216  167.2154 C.ar    1  UNL1        0.0017
     13 C         142.8859  142.0725  168.5290 C.ar    1  UNL1        0.0172
     14 C         141.5615  141.3696  168.5725 C.ar    1  UNL1        0.0602
     15 C         140.8051  141.1158  167.3023 C.ar    1  UNL1        0.0247
     16 C         139.5322  140.4048  167.6550 C.ar    1  UNL1        0.0203
     17 C         139.5019  140.2192  169.1431 C.ar    1  UNL1        0.0760
     18 N         140.7562  140.8155  169.7102 N.ar    1  UNL1       -0.3240
     19 C         141.1379  140.8513  171.1604 C.3     1  UNL1        0.1305
     20 C         140.9030  144.9546  159.1716 C.ar    1  UNL1        0.0339
     21 C         140.1568  145.6888  160.2459 C.ar    1  UNL1        0.1191
     22 N         139.4607  144.6738  161.1033 N.ar    1  UNL1       -0.1639
     23 N         139.7766  143.3122  160.5588 N.ar    1  UNL1       -0.2276
     24 C         140.6681  143.4858  159.3650 C.ar    1  UNL1        0.0988
     25 C         141.7377  145.5795  158.0932 C.3     1  UNL1        0.1024
     26 C         141.8888  145.3020  155.5144 C.3     1  UNL1        0.0899
     27 N         141.1577  145.7969  156.7271 N.3     1  UNL1       -0.2664
     28 C         139.8466  146.5093  156.5736 C.3     1  UNL1        0.0899
@<TRIPOS>BOND
     1    26    27    1
     2    27    28    1
     3    27    25    1
     4    25    20    1
     5    20    21   ar
     6    21    22   ar
     7    22    23   ar
     8    23     1    1
     9     1     2    2
    10     2     3    1
    11     3     4    2
    12     4     5    1
    13     5     6    2
    14     6     7    1
    15     7    10    1
    16    10    11   ar
    17    11    12   ar
    18    12    13   ar
    19    13    14   ar
    20    14    15   ar
    21    15    16   ar
    22    16    17   ar
    23    17    18   ar
    24    18    19    1
    25     7     8    2
    26     8     9    1
    27    23    24   ar
    28    24    20   ar
    29     9     1    1
    30     9     5    1
    31    15    10   ar
    32    18    14   ar
