@<TRIPOS>MOLECULE
*****
 34 39 0 0 0
SMALL
GASTEIGER

@<TRIPOS>ATOM
      1 N         143.1659  143.1453  164.4689 N.3     1  UNL1       -0.2722
      2 C         142.0058  144.0930  164.5452 C.3     1  UNL1        0.0735
      3 C         141.4981  144.7588  163.3006 C.3     1  UNL1        0.0331
      4 C         142.1506  144.4768  161.9797 C.3     1  UNL1        0.0571
      5 C         143.3107  143.5290  161.9033 C.3     1  UNL1        0.0331
      6 C         143.8184  142.8633  163.1479 C.3     1  UNL1        0.0735
      7 N         141.6429  145.1426  160.7351 N.3     1  UNL1       -0.2934
      8 H         142.4103  145.1352  160.0632 H       1  UNL1        0.1236
      9 C         140.4414  144.5910  160.0263 C.3     1  UNL1        0.1171
     10 C         139.7192  143.4024  160.5882 C.ar    1  UNL1        0.0997
     11 C         140.2645  142.0220  160.3712 C.ar    1  UNL1        0.0597
     12 C         139.5424  140.8335  160.9331 C.ar    1  UNL1        0.1943
     13 C         138.2749  141.0253  161.7120 C.ar    1  UNL1        0.2784
     14 N         137.7296  142.4056  161.9291 N.ar    1  UNL1       -0.1073
     15 N         138.4517  143.5942  161.3672 N.ar    1  UNL1       -0.1479
     16 O         137.5528  139.8366  162.2740 O.3     1  UNL1       -0.4531
     17 C         138.0981  138.4562  162.0569 C.3     1  UNL1        0.2543
     18 C         139.3656  138.2644  161.2780 C.3     1  UNL1        0.2528
     19 O         140.0877  139.4531  160.7160 O.3     1  UNL1       -0.4666
     20 C         143.6737  142.4794  165.7135 C.3     1  UNL1        0.0785
     21 O         141.7755  142.1760  171.4497 O.2     1  UNL1       -0.2670
     22 C         141.0728  141.5254  170.2952 C.ar    1  UNL1        0.2609
     23 C         139.8166  140.7396  170.5283 C.ar    1  UNL1        0.0608
     24 C         139.1138  140.0890  169.3738 C.ar    1  UNL1        0.0063
     25 C         139.6672  140.2242  167.9863 C.ar    1  UNL1        0.0159
     26 C         138.9644  139.5736  166.8318 C.ar    1  UNL1        0.0037
     27 C         139.5179  139.7088  165.4442 C.ar    1  UNL1        0.0294
     28 C         140.7741  140.4947  165.2111 C.ar    1  UNL1        0.1376
     29 F         141.3276  140.6299  163.8235 F       1  UNL1       -0.2045
     30 C         141.4769  141.1453  166.3655 C.ar    1  UNL1        0.0240
     31 C         140.9234  141.0100  167.7532 C.ar    1  UNL1        0.0607
     32 N         141.6262  141.6607  168.9077 N.ar    1  UNL1       -0.2954
     33 C         142.7943  142.3161  168.2324 C.3     1  UNL1        0.1148
     34 C         142.7081  142.0186  166.7647 C.3     1  UNL1        0.0646
@<TRIPOS>BOND
     1    21    22    2
     2    22    23   ar
     3    23    24   ar
     4    24    25   ar
     5    25    26   ar
     6    26    27   ar
     7    27    28   ar
     8    28    29    1
     9    28    30   ar
    10    30    31   ar
    11    31    32   ar
    12    32    33    1
    13    33    34    1
    14    34    20    1
    15    20     1    1
    16     1     2    1
    17     2     3    1
    18     3     4    1
    19     4     7    1
    20     7     9    1
    21     9    10    1
    22    10    11   ar
    23    11    12   ar
    24    12    13   ar
    25    13    14   ar
    26    14    15   ar
    27    13    16    1
    28    16    17    1
    29    17    18    1
    30    18    19    1
    31     4     5    1
    32     5     6    1
    33    32    22   ar
    34     6     1    1
    35    31    25   ar
    36    15    10   ar
    37    34    30    1
    38    19    12    1
    39     7     8    1
@<TRIPOS>MOLECULE
*****
 34 39 0 0 0
SMALL
GASTEIGER

@<TRIPOS>ATOM
      1 N         138.6338  139.3620  163.3541 N.3     1  UNL1       -0.2722
      2 C         139.2853  138.8834  162.0906 C.3     1  UNL1        0.0735
      3 C         139.1324  139.6709  160.8232 C.3     1  UNL1        0.0331
      4 C         138.3281  140.9370  160.8192 C.3     1  UNL1        0.0571
      5 C         137.6766  141.4157  162.0827 C.3     1  UNL1        0.0331
      6 C         137.8294  140.6281  163.3501 C.3     1  UNL1        0.0735
      7 N         138.1753  141.7246  159.5517 N.3     1  UNL1       -0.2934
      8 H         137.2499  142.1527  159.5808 H       1  UNL1        0.1236
      9 C         139.1487  142.8187  159.2266 C.3     1  UNL1        0.1171
     10 C         139.9173  143.4898  160.3261 C.ar    1  UNL1        0.0997
     11 C         141.3046  143.0282  160.6612 C.ar    1  UNL1        0.0597
     12 C         142.0732  143.6992  161.7606 C.ar    1  UNL1        0.1943
     13 C         141.4546  144.8319  162.5250 C.ar    1  UNL1        0.2784
     14 N         140.0673  145.2936  162.1900 N.ar    1  UNL1       -0.1073
     15 N         139.2986  144.6225  161.0905 N.ar    1  UNL1       -0.1479
     16 O         142.2233  145.5030  163.6246 O.3     1  UNL1       -0.4531
     17 C         143.6106  145.0414  163.9596 C.3     1  UNL1        0.2543
     18 C         144.2292  143.9087  163.1952 C.3     1  UNL1        0.2528
     19 O         143.4605  143.2376  162.0957 O.3     1  UNL1       -0.4666
     20 C         138.7866  138.5745  164.6217 C.3     1  UNL1        0.0785
     21 O         137.9442  139.7695  170.4921 O.2     1  UNL1       -0.2670
     22 C         139.0403  140.3671  169.6605 C.ar    1  UNL1        0.2609
     23 C         140.0131  141.3265  170.2793 C.ar    1  UNL1        0.0608
     24 C         141.1092  141.9241  169.4477 C.ar    1  UNL1        0.0063
     25 C         141.2324  141.5622  167.9973 C.ar    1  UNL1        0.0159
     26 C         142.3285  142.1597  167.1657 C.ar    1  UNL1        0.0037
     27 C         142.4517  141.7979  165.7153 C.ar    1  UNL1        0.0294
     28 C         141.4789  140.8384  165.0964 C.ar    1  UNL1        0.1376
     29 F         141.6021  140.4765  163.6459 F       1  UNL1       -0.2045
     30 C         140.3828  140.2408  165.9279 C.ar    1  UNL1        0.0240
     31 C         140.2596  140.6027  167.3785 C.ar    1  UNL1        0.0607
     32 N         139.1635  140.0052  168.2100 N.ar    1  UNL1       -0.2954
     33 C         138.4558  139.1347  167.2143 C.3     1  UNL1        0.1148
     34 C         139.1598  139.2707  165.8967 C.3     1  UNL1        0.0646
@<TRIPOS>BOND
     1    21    22    2
     2    22    23   ar
     3    23    24   ar
     4    24    25   ar
     5    25    26   ar
     6    26    27   ar
     7    27    28   ar
     8    28    29    1
     9    28    30   ar
    10    30    31   ar
    11    31    32   ar
    12    32    33    1
    13    33    34    1
    14    34    20    1
    15    20     1    1
    16     1     2    1
    17     2     3    1
    18     3     4    1
    19     4     7    1
    20     7     9    1
    21     9    10    1
    22    10    11   ar
    23    11    12   ar
    24    12    13   ar
    25    13    14   ar
    26    14    15   ar
    27    13    16    1
    28    16    17    1
    29    17    18    1
    30    18    19    1
    31     4     5    1
    32     5     6    1
    33    32    22   ar
    34     6     1    1
    35    31    25   ar
    36    15    10   ar
    37    34    30    1
    38    19    12    1
    39     7     8    1
@<TRIPOS>MOLECULE
*****
 34 39 0 0 0
SMALL
GASTEIGER

@<TRIPOS>ATOM
      1 N         141.5768  138.3537  164.1146 N.3     1  UNL1       -0.2722
      2 C         141.8405  138.6895  162.6766 C.3     1  UNL1        0.0735
      3 C         140.7319  138.6002  161.6702 C.3     1  UNL1        0.0331
      4 C         139.3596  138.1751  162.1016 C.3     1  UNL1        0.0571
      5 C         139.0959  137.8393  163.5395 C.3     1  UNL1        0.0331
      6 C         140.2045  137.9286  164.5460 C.3     1  UNL1        0.0735
      7 N         138.2510  138.0858  161.0951 N.3     1  UNL1       -0.2934
      8 H         137.7071  137.2552  161.3291 H       1  UNL1        0.1236
      9 C         137.2754  139.2162  160.9517 C.3     1  UNL1        0.1171
     10 C         137.6280  140.5808  161.4651 C.ar    1  UNL1        0.0997
     11 C         138.4407  141.5141  160.6174 C.ar    1  UNL1        0.0597
     12 C         138.7933  142.8786  161.1308 C.ar    1  UNL1        0.1943
     13 C         138.3332  143.3100  162.4918 C.ar    1  UNL1        0.2784
     14 N         137.5205  142.3767  163.3394 N.ar    1  UNL1       -0.1073
     15 N         137.1679  141.0121  162.8261 N.ar    1  UNL1       -0.1479
     16 O         138.6859  144.6747  163.0051 O.3     1  UNL1       -0.4531
     17 C         139.4986  145.6079  162.1575 C.3     1  UNL1        0.2543
     18 C         139.9587  145.1766  160.7965 C.3     1  UNL1        0.2528
     19 O         139.6060  143.8119  160.2832 O.3     1  UNL1       -0.4666
     20 C         142.6854  138.4429  165.1212 C.3     1  UNL1        0.0785
     21 O         143.5952  139.4154  171.0225 O.2     1  UNL1       -0.2670
     22 C         142.7905  140.3182  170.1351 C.ar    1  UNL1        0.2609
     23 C         142.1519  141.5517  170.7013 C.ar    1  UNL1        0.0608
     24 C         141.3473  142.4545  169.8139 C.ar    1  UNL1        0.0063
     25 C         141.1812  142.1238  168.3603 C.ar    1  UNL1        0.0159
     26 C         140.3766  143.0266  167.4729 C.ar    1  UNL1        0.0037
     27 C         140.2105  142.6959  166.0193 C.ar    1  UNL1        0.0294
     28 C         140.8491  141.4623  165.4530 C.ar    1  UNL1        0.1376
     29 F         140.6831  141.1317  163.9994 F       1  UNL1       -0.2045
     30 C         141.6538  140.5595  166.3404 C.ar    1  UNL1        0.0240
     31 C         141.8198  140.8903  167.7941 C.ar    1  UNL1        0.0607
     32 N         142.6245  139.9875  168.6815 N.ar    1  UNL1       -0.2954
     33 C         143.0587  138.9163  167.7253 C.3     1  UNL1        0.1148
     34 C         142.4982  139.2467  166.3736 C.3     1  UNL1        0.0646
@<TRIPOS>BOND
     1    21    22    2
     2    22    23   ar
     3    23    24   ar
     4    24    25   ar
     5    25    26   ar
     6    26    27   ar
     7    27    28   ar
     8    28    29    1
     9    28    30   ar
    10    30    31   ar
    11    31    32   ar
    12    32    33    1
    13    33    34    1
    14    34    20    1
    15    20     1    1
    16     1     2    1
    17     2     3    1
    18     3     4    1
    19     4     7    1
    20     7     9    1
    21     9    10    1
    22    10    11   ar
    23    11    12   ar
    24    12    13   ar
    25    13    14   ar
    26    14    15   ar
    27    13    16    1
    28    16    17    1
    29    17    18    1
    30    18    19    1
    31     4     5    1
    32     5     6    1
    33    32    22   ar
    34     6     1    1
    35    31    25   ar
    36    15    10   ar
    37    34    30    1
    38    19    12    1
    39     7     8    1
@<TRIPOS>MOLECULE
*****
 34 39 0 0 0
SMALL
GASTEIGER

@<TRIPOS>ATOM
      1 N         143.9700  139.5665  164.1711 N.3     1  UNL1       -0.2722
      2 C         144.8167  140.7988  164.2914 C.3     1  UNL1        0.0735
      3 C         145.0732  141.6530  163.0854 C.3     1  UNL1        0.0331
      4 C         144.4831  141.2750  161.7592 C.3     1  UNL1        0.0571
      5 C         143.6364  140.0427  161.6389 C.3     1  UNL1        0.0331
      6 C         143.3798  139.1884  162.8449 C.3     1  UNL1        0.0735
      7 N         144.7396  142.1293  160.5532 N.3     1  UNL1       -0.2934
      8 H         144.9652  141.4959  159.7862 H       1  UNL1        0.1236
      9 C         143.6728  143.0561  160.0499 C.3     1  UNL1        0.1171
     10 C         142.6014  143.5419  160.9805 C.ar    1  UNL1        0.0997
     11 C         141.2349  142.9247  160.9383 C.ar    1  UNL1        0.0597
     12 C         140.1635  143.4105  161.8689 C.ar    1  UNL1        0.1943
     13 C         140.4585  144.5136  162.8417 C.ar    1  UNL1        0.2784
     14 N         141.8250  145.1308  162.8839 N.ar    1  UNL1       -0.1073
     15 N         142.8964  144.6450  161.9533 N.ar    1  UNL1       -0.1479
     16 O         139.3870  144.9994  163.7723 O.3     1  UNL1       -0.4531
     17 C         138.0205  144.3822  163.7301 C.3     1  UNL1        0.2543
     18 C         137.7255  143.2791  162.7573 C.3     1  UNL1        0.2528
     19 O         138.7970  142.7933  161.8267 O.3     1  UNL1       -0.4666
     20 C         143.7134  138.7121  165.3771 C.3     1  UNL1        0.0785
     21 O         142.1575  141.0847  170.7203 O.2     1  UNL1       -0.2670
     22 C         141.1749  140.5823  169.7044 C.ar    1  UNL1        0.2609
     23 C         139.7033  140.6515  169.9863 C.ar    1  UNL1        0.0608
     24 C         138.7206  140.1491  168.9704 C.ar    1  UNL1        0.0063
     25 C         139.2095  139.5773  167.6728 C.ar    1  UNL1        0.0159
     26 C         138.2269  139.0748  166.6570 C.ar    1  UNL1        0.0037
     27 C         138.7158  138.5031  165.3593 C.ar    1  UNL1        0.0294
     28 C         140.1875  138.4338  165.0774 C.ar    1  UNL1        0.1376
     29 F         140.6765  137.8620  163.7798 F       1  UNL1       -0.2045
     30 C         141.1702  138.9362  166.0932 C.ar    1  UNL1        0.0240
     31 C         140.6812  139.5080  167.3910 C.ar    1  UNL1        0.0607
     32 N         141.6638  140.0105  168.4068 N.ar    1  UNL1       -0.2954
     33 C         142.9755  139.7529  167.7259 C.3     1  UNL1        0.1148
     34 C         142.6904  139.1327  166.3902 C.3     1  UNL1        0.0646
@<TRIPOS>BOND
     1    21    22    2
     2    22    23   ar
     3    23    24   ar
     4    24    25   ar
     5    25    26   ar
     6    26    27   ar
     7    27    28   ar
     8    28    29    1
     9    28    30   ar
    10    30    31   ar
    11    31    32   ar
    12    32    33    1
    13    33    34    1
    14    34    20    1
    15    20     1    1
    16     1     2    1
    17     2     3    1
    18     3     4    1
    19     4     7    1
    20     7     9    1
    21     9    10    1
    22    10    11   ar
    23    11    12   ar
    24    12    13   ar
    25    13    14   ar
    26    14    15   ar
    27    13    16    1
    28    16    17    1
    29    17    18    1
    30    18    19    1
    31     4     5    1
    32     5     6    1
    33    32    22   ar
    34     6     1    1
    35    31    25   ar
    36    15    10   ar
    37    34    30    1
    38    19    12    1
    39     7     8    1
@<TRIPOS>MOLECULE
*****
 34 39 0 0 0
SMALL
GASTEIGER

@<TRIPOS>ATOM
      1 N         138.4479  139.6198  165.0594 N.3     1  UNL1       -0.2722
      2 C         138.0513  141.0479  164.8286 C.3     1  UNL1        0.0735
      3 C         137.7503  141.5275  163.4395 C.3     1  UNL1        0.0331
      4 C         137.8459  140.5790  162.2814 C.3     1  UNL1        0.0571
      5 C         138.2426  139.1509  162.5123 C.3     1  UNL1        0.0331
      6 C         138.5436  138.6714  163.9013 C.3     1  UNL1        0.0735
      7 N         137.5449  141.0586  160.8924 N.3     1  UNL1       -0.2934
      8 H         136.8326  141.7835  160.9790 H       1  UNL1        0.1236
      9 C         138.6413  141.6281  160.0415 C.3     1  UNL1        0.1171
     10 C         140.0702  141.5112  160.4824 C.ar    1  UNL1        0.0997
     11 C         140.7615  142.6875  161.1056 C.ar    1  UNL1        0.0597
     12 C         142.1905  142.5705  161.5464 C.ar    1  UNL1        0.1943
     13 C         142.9282  141.2772  161.3641 C.ar    1  UNL1        0.2784
     14 N         142.2369  140.1009  160.7408 N.ar    1  UNL1       -0.1073
     15 N         140.8080  140.2179  160.3000 N.ar    1  UNL1       -0.1479
     16 O         144.3572  141.1603  161.8049 O.3     1  UNL1       -0.4531
     17 C         145.0485  142.3366  162.4281 C.3     1  UNL1        0.2543
     18 C         144.3108  143.6299  162.6105 C.3     1  UNL1        0.2528
     19 O         142.8817  143.7468  162.1697 O.3     1  UNL1       -0.4666
     20 C         138.7490  139.1402  166.4485 C.3     1  UNL1        0.0785
     21 O         140.4500  141.2987  171.8380 O.2     1  UNL1       -0.2670
     22 C         141.1970  141.5420  170.5602 C.ar    1  UNL1        0.2609
     23 C         142.4502  142.3662  170.5693 C.ar    1  UNL1        0.0608
     24 C         143.1972  142.6095  169.2914 C.ar    1  UNL1        0.0063
     25 C         142.6910  142.0285  168.0045 C.ar    1  UNL1        0.0159
     26 C         143.4380  142.2717  166.7267 C.ar    1  UNL1        0.0037
     27 C         142.9319  141.6907  165.4398 C.ar    1  UNL1        0.0294
     28 C         141.6787  140.8663  165.4307 C.ar    1  UNL1        0.1376
     29 F         141.1725  140.2853  164.1438 F       1  UNL1       -0.2045
     30 C         140.9317  140.6231  166.7085 C.ar    1  UNL1        0.0240
     31 C         141.4379  141.2042  167.9955 C.ar    1  UNL1        0.0607
     32 N         140.6909  140.9609  169.2733 N.ar    1  UNL1       -0.2954
     33 C         139.5419  140.1167  168.8070 C.3     1  UNL1        0.1148
     34 C         139.6810  139.9216  167.3262 C.3     1  UNL1        0.0646
@<TRIPOS>BOND
     1    21    22    2
     2    22    23   ar
     3    23    24   ar
     4    24    25   ar
     5    25    26   ar
     6    26    27   ar
     7    27    28   ar
     8    28    29    1
     9    28    30   ar
    10    30    31   ar
    11    31    32   ar
    12    32    33    1
    13    33    34    1
    14    34    20    1
    15    20     1    1
    16     1     2    1
    17     2     3    1
    18     3     4    1
    19     4     7    1
    20     7     9    1
    21     9    10    1
    22    10    11   ar
    23    11    12   ar
    24    12    13   ar
    25    13    14   ar
    26    14    15   ar
    27    13    16    1
    28    16    17    1
    29    17    18    1
    30    18    19    1
    31     4     5    1
    32     5     6    1
    33    32    22   ar
    34     6     1    1
    35    31    25   ar
    36    15    10   ar
    37    34    30    1
    38    19    12    1
    39     7     8    1
@<TRIPOS>MOLECULE
*****
 34 39 0 0 0
SMALL
GASTEIGER

@<TRIPOS>ATOM
      1 N         142.8599  138.5586  163.7258 N.3     1  UNL1       -0.2722
      2 C         144.0291  139.4859  163.5747 C.3     1  UNL1        0.0735
      3 C         144.4426  139.9557  162.2115 C.3     1  UNL1        0.0331
      4 C         143.6868  139.4981  160.9993 C.3     1  UNL1        0.0571
      5 C         142.5175  138.5707  161.1503 C.3     1  UNL1        0.0331
      6 C         142.1041  138.1010  162.5136 C.3     1  UNL1        0.0735
      7 N         144.1002  139.9678  159.6361 N.3     1  UNL1       -0.2934
      8 H         143.7138  139.3031  158.9658 H       1  UNL1        0.1236
      9 C         143.7083  141.3366  159.1637 C.3     1  UNL1        0.1171
     10 C         143.0561  142.2989  160.1116 C.ar    1  UNL1        0.0997
     11 C         141.5734  142.2455  160.3325 C.ar    1  UNL1        0.0597
     12 C         140.9212  143.2078  161.2804 C.ar    1  UNL1        0.1943
     13 C         141.7517  144.2236  162.0075 C.ar    1  UNL1        0.2784
     14 N         143.2344  144.2770  161.7866 N.ar    1  UNL1       -0.1073
     15 N         143.8866  143.3146  160.8387 N.ar    1  UNL1       -0.1479
     16 O         141.0995  145.1859  162.9554 O.3     1  UNL1       -0.4531
     17 C         139.6168  145.1325  163.1763 C.3     1  UNL1        0.2543
     18 C         138.7863  144.1168  162.4492 C.3     1  UNL1        0.2528
     19 O         139.4386  143.1544  161.5013 O.3     1  UNL1       -0.4666
     20 C         142.4463  138.0888  165.0890 C.3     1  UNL1        0.0785
     21 O         143.7069  139.8839  170.7271 O.2     1  UNL1       -0.2670
     22 C         142.8632  140.6652  169.7640 C.ar    1  UNL1        0.2609
     23 C         142.2731  141.9802  170.1796 C.ar    1  UNL1        0.0608
     24 C         141.4294  142.7616  169.2165 C.ar    1  UNL1        0.0063
     25 C         141.1758  142.2280  167.8377 C.ar    1  UNL1        0.0159
     26 C         140.3321  143.0094  166.8746 C.ar    1  UNL1        0.0037
     27 C         140.0785  142.4759  165.4959 C.ar    1  UNL1        0.0294
     28 C         140.6685  141.1609  165.0802 C.ar    1  UNL1        0.1376
     29 F         140.4149  140.6274  163.7015 F       1  UNL1       -0.2045
     30 C         141.5122  140.3795  166.0433 C.ar    1  UNL1        0.0240
     31 C         141.7658  140.9131  167.4221 C.ar    1  UNL1        0.0607
     32 N         142.6095  140.1317  168.3852 N.ar    1  UNL1       -0.2954
     33 C         142.9750  138.9253  167.5721 C.3     1  UNL1        0.1148
     34 C         142.3414  139.0684  166.2200 C.3     1  UNL1        0.0646
@<TRIPOS>BOND
     1    21    22    2
     2    22    23   ar
     3    23    24   ar
     4    24    25   ar
     5    25    26   ar
     6    26    27   ar
     7    27    28   ar
     8    28    29    1
     9    28    30   ar
    10    30    31   ar
    11    31    32   ar
    12    32    33    1
    13    33    34    1
    14    34    20    1
    15    20     1    1
    16     1     2    1
    17     2     3    1
    18     3     4    1
    19     4     7    1
    20     7     9    1
    21     9    10    1
    22    10    11   ar
    23    11    12   ar
    24    12    13   ar
    25    13    14   ar
    26    14    15   ar
    27    13    16    1
    28    16    17    1
    29    17    18    1
    30    18    19    1
    31     4     5    1
    32     5     6    1
    33    32    22   ar
    34     6     1    1
    35    31    25   ar
    36    15    10   ar
    37    34    30    1
    38    19    12    1
    39     7     8    1
@<TRIPOS>MOLECULE
*****
 34 39 0 0 0
SMALL
GASTEIGER

@<TRIPOS>ATOM
      1 N         143.3965  139.7533  162.5764 N.3     1  UNL1       -0.2722
      2 C         142.6501  139.4915  161.3020 C.3     1  UNL1        0.0735
      3 C         142.6885  140.4976  160.1901 C.3     1  UNL1        0.0331
      4 C         143.4735  141.7655  160.3527 C.3     1  UNL1        0.0571
      5 C         144.2200  142.0272  161.6271 C.3     1  UNL1        0.0331
      6 C         144.1815  141.0211  162.7390 C.3     1  UNL1        0.0735
      7 N         143.5120  142.7716  159.2408 N.3     1  UNL1       -0.2934
      8 H         143.4818  142.2461  158.3670 H       1  UNL1        0.1236
      9 C         142.4507  143.8276  159.1479 C.3     1  UNL1        0.1171
     10 C         141.2712  143.7889  160.0738 C.ar    1  UNL1        0.0997
     11 C         141.3880  144.3475  161.4610 C.ar    1  UNL1        0.0597
     12 C         140.2085  144.3088  162.3868 C.ar    1  UNL1        0.1943
     13 C         138.9121  143.7116  161.9255 C.ar    1  UNL1        0.2784
     14 N         138.7953  143.1530  160.5383 N.ar    1  UNL1       -0.1073
     15 N         139.9748  143.1917  159.6124 N.ar    1  UNL1       -0.1479
     16 O         137.7326  143.6729  162.8515 O.3     1  UNL1       -0.4531
     17 C         137.8494  144.2315  164.2387 C.3     1  UNL1        0.2543
     18 C         139.1458  144.8287  164.7000 C.3     1  UNL1        0.2528
     19 O         140.3253  144.8674  163.7740 O.3     1  UNL1       -0.4666
     20 C         143.3581  138.7471  163.6884 C.3     1  UNL1        0.0785
     21 O         143.1283  140.0511  169.5914 O.2     1  UNL1       -0.2670
     22 C         141.9202  139.9005  168.7152 C.ar    1  UNL1        0.2609
     23 C         140.5474  140.0751  169.2941 C.ar    1  UNL1        0.0608
     24 C         139.3393  139.9246  168.4178 C.ar    1  UNL1        0.0063
     25 C         139.5039  139.5994  166.9628 C.ar    1  UNL1        0.0159
     26 C         138.2957  139.4489  166.0866 C.ar    1  UNL1        0.0037
     27 C         138.4603  139.1237  164.6316 C.ar    1  UNL1        0.0294
     28 C         139.8331  138.9491  164.0527 C.ar    1  UNL1        0.1376
     29 F         139.9977  138.6240  162.5977 F       1  UNL1       -0.2045
     30 C         141.0413  139.0997  164.9289 C.ar    1  UNL1        0.0240
     31 C         140.8766  139.4248  166.3840 C.ar    1  UNL1        0.0607
     32 N         142.0847  139.5754  167.2602 N.ar    1  UNL1       -0.2954
     33 C         143.2042  139.3245  166.2937 C.3     1  UNL1        0.1148
     34 C         142.6017  139.0498  164.9477 C.3     1  UNL1        0.0646
@<TRIPOS>BOND
     1    21    22    2
     2    22    23   ar
     3    23    24   ar
     4    24    25   ar
     5    25    26   ar
     6    26    27   ar
     7    27    28   ar
     8    28    29    1
     9    28    30   ar
    10    30    31   ar
    11    31    32   ar
    12    32    33    1
    13    33    34    1
    14    34    20    1
    15    20     1    1
    16     1     2    1
    17     2     3    1
    18     3     4    1
    19     4     7    1
    20     7     9    1
    21     9    10    1
    22    10    11   ar
    23    11    12   ar
    24    12    13   ar
    25    13    14   ar
    26    14    15   ar
    27    13    16    1
    28    16    17    1
    29    17    18    1
    30    18    19    1
    31     4     5    1
    32     5     6    1
    33    32    22   ar
    34     6     1    1
    35    31    25   ar
    36    15    10   ar
    37    34    30    1
    38    19    12    1
    39     7     8    1
@<TRIPOS>MOLECULE
*****
 34 39 0 0 0
SMALL
GASTEIGER

@<TRIPOS>ATOM
      1 N         140.5695  138.1936  161.1805 N.3     1  UNL1       -0.2722
      2 C         142.0129  137.8079  161.3131 C.3     1  UNL1        0.0735
      3 C         142.8784  137.7106  160.0918 C.3     1  UNL1        0.0331
      4 C         142.3004  137.9990  158.7380 C.3     1  UNL1        0.0571
      5 C         140.8569  138.3847  158.6055 C.3     1  UNL1        0.0331
      6 C         139.9914  138.4820  159.8267 C.3     1  UNL1        0.0735
      7 N         143.1658  137.9016  157.5167 N.3     1  UNL1       -0.2934
      8 H         144.0353  137.4542  157.8069 H       1  UNL1        0.1236
      9 C         142.6778  137.1575  156.3091 C.3     1  UNL1        0.1171
     10 C         142.6397  135.6580  156.3170 C.ar    1  UNL1        0.0997
     11 C         143.6738  134.8855  157.0811 C.ar    1  UNL1        0.0597
     12 C         143.6357  133.3860  157.0890 C.ar    1  UNL1        0.1943
     13 C         142.5635  132.6590  156.3327 C.ar    1  UNL1        0.2784
     14 N         141.5295  133.4315  155.5685 N.ar    1  UNL1       -0.1073
     15 N         141.5676  134.9310  155.5607 N.ar    1  UNL1       -0.1479
     16 O         142.5255  131.1594  156.3406 O.3     1  UNL1       -0.4531
     17 C         143.5596  130.3870  157.1048 C.3     1  UNL1        0.2543
     18 C         144.6317  131.1140  157.8611 C.3     1  UNL1        0.2528
     19 O         144.6698  132.6136  157.8532 O.3     1  UNL1       -0.4666
     20 C         139.7039  138.2910  162.4018 C.3     1  UNL1        0.0785
     21 O         137.7682  143.9529  163.2936 O.2     1  UNL1       -0.2670
     22 C         138.7065  143.2296  164.2136 C.ar    1  UNL1        0.2609
     23 C         139.2242  143.9121  165.4449 C.ar    1  UNL1        0.0608
     24 C         140.1625  143.1888  166.3650 C.ar    1  UNL1        0.0063
     25 C         140.5830  141.7830  166.0537 C.ar    1  UNL1        0.0159
     26 C         141.5213  141.0598  166.9738 C.ar    1  UNL1        0.0037
     27 C         141.9419  139.6540  166.6625 C.ar    1  UNL1        0.0294
     28 C         141.4242  138.9714  165.4311 C.ar    1  UNL1        0.1376
     29 F         141.8447  137.5657  165.1199 F       1  UNL1       -0.2045
     30 C         140.4859  139.6947  164.5111 C.ar    1  UNL1        0.0240
     31 C         140.0653  141.1006  164.8224 C.ar    1  UNL1        0.0607
     32 N         139.1270  141.8239  163.9024 N.ar    1  UNL1       -0.2954
     33 C         138.8771  140.7949  162.8398 C.3     1  UNL1        0.1148
     34 C         139.6616  139.5656  163.1914 C.3     1  UNL1        0.0646
@<TRIPOS>BOND
     1    21    22    2
     2    22    23   ar
     3    23    24   ar
     4    24    25   ar
     5    25    26   ar
     6    26    27   ar
     7    27    28   ar
     8    28    29    1
     9    28    30   ar
    10    30    31   ar
    11    31    32   ar
    12    32    33    1
    13    33    34    1
    14    34    20    1
    15    20     1    1
    16     1     2    1
    17     2     3    1
    18     3     4    1
    19     4     7    1
    20     7     9    1
    21     9    10    1
    22    10    11   ar
    23    11    12   ar
    24    12    13   ar
    25    13    14   ar
    26    14    15   ar
    27    13    16    1
    28    16    17    1
    29    17    18    1
    30    18    19    1
    31     4     5    1
    32     5     6    1
    33    32    22   ar
    34     6     1    1
    35    31    25   ar
    36    15    10   ar
    37    34    30    1
    38    19    12    1
    39     7     8    1
@<TRIPOS>MOLECULE
*****
 34 39 0 0 0
SMALL
GASTEIGER

@<TRIPOS>ATOM
      1 N         140.9996  137.9923  161.9380 N.3     1  UNL1       -0.2722
      2 C         141.8973  138.2704  160.7690 C.3     1  UNL1        0.0735
      3 C         141.3058  138.6224  159.4362 C.3     1  UNL1        0.0331
      4 C         139.8166  138.6964  159.2726 C.3     1  UNL1        0.0571
      5 C         138.9189  138.4183  160.4417 C.3     1  UNL1        0.0331
      6 C         139.5104  138.0663  161.7744 C.3     1  UNL1        0.0735
      7 N         139.2251  139.0485  157.9399 N.3     1  UNL1       -0.2934
      8 H         138.4846  138.3710  157.7582 H       1  UNL1        0.1236
      9 C         138.6318  140.4083  157.7184 C.3     1  UNL1        0.1171
     10 C         139.1656  141.5911  158.4707 C.ar    1  UNL1        0.0997
     11 C         138.4754  142.0611  159.7168 C.ar    1  UNL1        0.0597
     12 C         139.0093  143.2438  160.4692 C.ar    1  UNL1        0.1943
     13 C         140.2333  143.9566  159.9755 C.ar    1  UNL1        0.2784
     14 N         140.9235  143.4866  158.7294 N.ar    1  UNL1       -0.1073
     15 N         140.3896  142.3039  157.9770 N.ar    1  UNL1       -0.1479
     16 O         140.7671  145.1394  160.7280 O.3     1  UNL1       -0.4531
     17 C         140.0769  145.6094  161.9741 C.3     1  UNL1        0.2543
     18 C         138.8529  144.8966  162.4677 C.3     1  UNL1        0.2528
     19 O         138.3191  143.7138  161.7153 O.3     1  UNL1       -0.4666
     20 C         141.5911  137.6402  163.2708 C.3     1  UNL1        0.0785
     21 O         138.8692  139.5071  168.3409 O.2     1  UNL1       -0.2670
     22 C         140.0494  140.1921  167.7181 C.ar    1  UNL1        0.2609
     23 C         140.6261  141.4209  168.3563 C.ar    1  UNL1        0.0608
     24 C         141.8063  142.1060  167.7335 C.ar    1  UNL1        0.0063
     25 C         142.4098  141.5622  166.4725 C.ar    1  UNL1        0.0159
     26 C         143.5900  142.2473  165.8497 C.ar    1  UNL1        0.0037
     27 C         144.1934  141.7035  164.5888 C.ar    1  UNL1        0.0294
     28 C         143.6167  140.4746  163.9505 C.ar    1  UNL1        0.1376
     29 F         144.2202  139.9309  162.6895 F       1  UNL1       -0.2045
     30 C         142.4365  139.7896  164.5733 C.ar    1  UNL1        0.0240
     31 C         141.8331  140.3334  165.8343 C.ar    1  UNL1        0.0607
     32 N         140.6529  139.6484  166.4571 N.ar    1  UNL1       -0.2954
     33 C         140.4226  138.5048  165.5140 C.3     1  UNL1        0.1148
     34 C         141.4524  138.5864  164.4264 C.3     1  UNL1        0.0646
@<TRIPOS>BOND
     1    21    22    2
     2    22    23   ar
     3    23    24   ar
     4    24    25   ar
     5    25    26   ar
     6    26    27   ar
     7    27    28   ar
     8    28    29    1
     9    28    30   ar
    10    30    31   ar
    11    31    32   ar
    12    32    33    1
    13    33    34    1
    14    34    20    1
    15    20     1    1
    16     1     2    1
    17     2     3    1
    18     3     4    1
    19     4     7    1
    20     7     9    1
    21     9    10    1
    22    10    11   ar
    23    11    12   ar
    24    12    13   ar
    25    13    14   ar
    26    14    15   ar
    27    13    16    1
    28    16    17    1
    29    17    18    1
    30    18    19    1
    31     4     5    1
    32     5     6    1
    33    32    22   ar
    34     6     1    1
    35    31    25   ar
    36    15    10   ar
    37    34    30    1
    38    19    12    1
    39     7     8    1
