@<TRIPOS>MOLECULE
*****
 35 38 0 0 0
SMALL
GASTEIGER

@<TRIPOS>ATOM
      1 N         142.8843  143.0348  164.5096 N.3     1  UNL1       -0.2750
      2 C         141.8993  143.4910  163.4744 C.3     1  UNL1        0.0611
      3 C         142.4249  144.7540  162.8592 C.3     1  UNL1        0.0175
      4 C         143.7348  145.0784  163.5141 C.3     1  UNL1        0.0175
      5 C         144.0188  144.0158  164.5341 C.3     1  UNL1        0.0611
      6 C         144.0410  142.8303  165.4684 C.3     1  UNL1        0.0595
      7 C         142.8431  141.9380  165.3311 C.3     1  UNL1        0.1686
      8 C         141.7722  142.2684  164.3341 C.3     1  UNL1        0.0595
      9 C         142.7572  141.8122  165.3693 C.3     1  UNL1        0.0720
     10 C         143.6092  140.6090  165.0927 C.3     1  UNL1        0.0173
     11 C         143.2204  138.4293  161.1751 C.3     1  UNL1        0.0730
     12 C         144.1782  139.5765  161.3032 C.3     1  UNL1        0.0196
     13 C         144.3078  140.3030  162.6091 C.3     1  UNL1        0.0017
     14 C         143.4796  139.8824  163.7869 C.3     1  UNL1        0.0015
     15 C         142.5217  138.7351  163.6587 C.3     1  UNL1        0.0017
     16 C         142.3921  138.0086  162.3528 C.3     1  UNL1        0.0196
     17 C         141.1227  138.0270  156.4382 C.3     1  UNL1        0.1165
     18 N         142.0419  137.5017  157.5007 N.am    1  UNL1       -0.2607
     19 C         142.8316  136.2498  157.2574 C.3     1  UNL1        0.1165
     20 C         142.1716  138.2281  158.8067 C.2     1  UNL1        0.3040
     21 O         141.3819  139.4800  159.0501 O.2     1  UNL1       -0.2526
     22 N         143.0908  137.7028  159.8692 N.am    1  UNL1       -0.2904
     23 H         143.6091  136.8811  159.7095 H       1  UNL1        0.1509
     24 O         142.7160  140.7154  166.1909 O.3     1  UNL1       -0.4791
     25 C         141.6811  140.6655  167.2756 C.ar    1  UNL1        0.1385
     26 C         140.3854  139.9464  167.0435 C.ar    1  UNL1        0.0369
     27 C         139.3506  139.8966  168.1281 C.ar    1  UNL1        0.0033
     28 C         139.6114  140.5658  169.4449 C.ar    1  UNL1        0.0047
     29 C         140.9072  141.2849  169.6770 C.ar    1  UNL1        0.0561
     30 C         141.9421  141.3348  168.5923 C.ar    1  UNL1        0.0414
     31 C         141.1680  141.9542  170.9939 C.2     1  UNL1        0.2428
     32 N         142.5148  142.5501  171.2786 N.am    1  UNL1       -0.3253
     33 O         140.3389  142.2021  172.2191 O.2     1  UNL1       -0.2704
     34 H         143.2276  142.5019  170.6012 H       1  UNL1        0.1453
     35 H         142.6860  142.9893  172.1429 H       1  UNL1        0.1453
@<TRIPOS>BOND
     1    17    18    1
     2    18    19    1
     3    18    20   am
     4    20    21    2
     5    20    22   am
     6    11    22    1
     7    11    12    1
     8    12    13    1
     9    13    14    1
    10    14    10    1
    11    10     9    1
    12     9     1    1
    13     1     2    1
    14     2     3    1
    15     3     4    1
    16     5     4    1
    17     5     6    1
    18     6     7    1
    19     7    24    1
    20    24    25    1
    21    25    26   ar
    22    26    27   ar
    23    27    28   ar
    24    28    29   ar
    25    29    31    1
    26    31    32   am
    27    31    33    2
    28    29    30   ar
    29     7     8    1
    30    14    15    1
    31    15    16    1
    32    16    11    1
    33     5     1    1
    34    30    25   ar
    35     8     2    1
    36    22    23    1
    37    32    34    1
    38    32    35    1
@<TRIPOS>MOLECULE
*****
 35 38 0 0 0
SMALL
GASTEIGER

@<TRIPOS>ATOM
      1 N         141.7802  142.3537  168.2689 N.3     1  UNL1       -0.2750
      2 C         143.2668  142.2171  168.1230 C.3     1  UNL1        0.0611
      3 C         143.8969  142.5841  169.4339 C.3     1  UNL1        0.0175
      4 C         142.7997  142.9475  170.3899 C.3     1  UNL1        0.0175
      5 C         141.4915  142.8051  169.6700 C.3     1  UNL1        0.0611
      6 C         140.3474  142.5788  168.7113 C.3     1  UNL1        0.0595
      7 C         140.7882  142.1302  167.3495 C.3     1  UNL1        0.1686
      8 C         142.2479  141.9494  167.0554 C.3     1  UNL1        0.0595
      9 C         140.7612  142.0859  167.2012 C.3     1  UNL1        0.0720
     10 C         139.8808  143.1963  166.7093 C.3     1  UNL1        0.0173
     11 C         140.0939  144.4986  162.4072 C.3     1  UNL1        0.0730
     12 C         141.3559  144.2666  163.1839 C.3     1  UNL1        0.0196
     13 C         141.2848  143.8325  164.6180 C.3     1  UNL1        0.0017
     14 C         139.9518  143.6304  165.2753 C.3     1  UNL1        0.0015
     15 C         138.6897  143.8624  164.4985 C.3     1  UNL1        0.0017
     16 C         138.7608  144.2965  163.0644 C.3     1  UNL1        0.0196
     17 C         140.1966  143.3179  157.3480 C.3     1  UNL1        0.1165
     18 N         140.2163  144.3423  158.4435 N.am    1  UNL1       -0.2607
     19 C         140.3071  145.8008  158.1050 C.3     1  UNL1        0.1165
     20 C         140.1452  143.9083  159.8776 C.2     1  UNL1        0.3040
     21 O         140.0544  142.4498  160.2161 O.2     1  UNL1       -0.2526
     22 N         140.1650  144.9327  160.9731 N.am    1  UNL1       -0.2904
     23 H         140.2245  145.8900  160.7509 H       1  UNL1        0.1509
     24 O         139.7691  141.8624  166.2818 O.3     1  UNL1       -0.4791
     25 C         139.3489  140.4539  165.9824 C.ar    1  UNL1        0.1385
     26 C         138.5144  139.6941  166.9705 C.ar    1  UNL1        0.0369
     27 C         138.0942  138.2857  166.6712 C.ar    1  UNL1        0.0033
     28 C         138.5085  137.6370  165.3837 C.ar    1  UNL1        0.0047
     29 C         139.3430  138.3968  164.3957 C.ar    1  UNL1        0.0561
     30 C         139.7632  139.8053  164.6950 C.ar    1  UNL1        0.0414
     31 C         139.7573  137.7480  163.1082 C.2     1  UNL1        0.2428
     32 N         138.8085  137.7126  161.9469 N.am    1  UNL1       -0.3253
     33 O         141.0053  137.0574  162.6437 O.2     1  UNL1       -0.2704
     34 H         137.9139  138.1151  162.0297 H       1  UNL1        0.1453
     35 H         139.0805  137.2868  161.1019 H       1  UNL1        0.1453
@<TRIPOS>BOND
     1    17    18    1
     2    18    19    1
     3    18    20   am
     4    20    21    2
     5    20    22   am
     6    11    22    1
     7    11    12    1
     8    12    13    1
     9    13    14    1
    10    14    10    1
    11    10     9    1
    12     9     1    1
    13     1     2    1
    14     2     3    1
    15     3     4    1
    16     5     4    1
    17     5     6    1
    18     6     7    1
    19     7    24    1
    20    24    25    1
    21    25    26   ar
    22    26    27   ar
    23    27    28   ar
    24    28    29   ar
    25    29    31    1
    26    31    32   am
    27    31    33    2
    28    29    30   ar
    29     7     8    1
    30    14    15    1
    31    15    16    1
    32    16    11    1
    33     5     1    1
    34    30    25   ar
    35     8     2    1
    36    22    23    1
    37    32    34    1
    38    32    35    1
@<TRIPOS>MOLECULE
*****
 35 38 0 0 0
SMALL
GASTEIGER

@<TRIPOS>ATOM
      1 N         139.9024  139.4359  164.6831 N.3     1  UNL1       -0.2750
      2 C         141.0941  139.1469  163.8192 C.3     1  UNL1        0.0611
      3 C         140.7705  137.9563  162.9662 C.3     1  UNL1        0.0175
      4 C         139.3788  137.5094  163.3028 C.3     1  UNL1        0.0175
      5 C         138.8422  138.4238  164.3640 C.3     1  UNL1        0.0611
      6 C         138.5716  139.4795  165.4087 C.3     1  UNL1        0.0595
      7 C         139.7210  140.4199  165.6203 C.3     1  UNL1        0.1686
      8 C         140.9822  140.2536  164.8256 C.3     1  UNL1        0.0595
      9 C         139.7905  140.5425  165.6895 C.3     1  UNL1        0.0720
     10 C         138.9365  141.7402  165.3954 C.3     1  UNL1        0.0173
     11 C         139.4949  144.0125  161.5517 C.3     1  UNL1        0.0730
     12 C         140.2650  144.4094  162.7762 C.3     1  UNL1        0.0196
     13 C         140.0788  143.6519  164.0574 C.3     1  UNL1        0.0017
     14 C         139.1226  142.4976  164.1142 C.3     1  UNL1        0.0015
     15 C         138.3525  142.1007  162.8896 C.3     1  UNL1        0.0017
     16 C         138.5387  142.8582  161.6084 C.3     1  UNL1        0.0196
     17 C         142.3102  145.0600  157.3118 C.3     1  UNL1        0.1165
     18 N         141.0888  145.2937  158.1505 N.am    1  UNL1       -0.2607
     19 C         140.0535  146.2849  157.7079 C.3     1  UNL1        0.1165
     20 C         140.9025  144.5363  159.4317 C.2     1  UNL1        0.3040
     21 O         141.9378  143.5451  159.8743 O.2     1  UNL1       -0.2526
     22 N         139.6811  144.7700  160.2704 N.am    1  UNL1       -0.2904
     23 H         139.0016  145.4205  159.9800 H       1  UNL1        0.1509
     24 O         139.6090  141.5266  166.6267 O.3     1  UNL1       -0.4791
     25 C         140.2111  141.3635  167.9909 C.ar    1  UNL1        0.1385
     26 C         139.6026  140.4032  168.9694 C.ar    1  UNL1        0.0369
     27 C         140.2047  140.2401  170.3334 C.ar    1  UNL1        0.0033
     28 C         141.4153  141.0374  170.7191 C.ar    1  UNL1        0.0047
     29 C         142.0237  141.9978  169.7406 C.ar    1  UNL1        0.0561
     30 C         141.4216  142.1608  168.3765 C.ar    1  UNL1        0.0414
     31 C         143.2343  142.7951  170.1263 C.2     1  UNL1        0.2428
     32 N         143.1226  143.8751  171.1613 N.am    1  UNL1       -0.3253
     33 O         144.6710  142.7830  169.6948 O.2     1  UNL1       -0.2704
     34 H         142.2548  144.0607  171.5874 H       1  UNL1        0.1453
     35 H         143.9172  144.3984  171.4144 H       1  UNL1        0.1453
@<TRIPOS>BOND
     1    17    18    1
     2    18    19    1
     3    18    20   am
     4    20    21    2
     5    20    22   am
     6    11    22    1
     7    11    12    1
     8    12    13    1
     9    13    14    1
    10    14    10    1
    11    10     9    1
    12     9     1    1
    13     1     2    1
    14     2     3    1
    15     3     4    1
    16     5     4    1
    17     5     6    1
    18     6     7    1
    19     7    24    1
    20    24    25    1
    21    25    26   ar
    22    26    27   ar
    23    27    28   ar
    24    28    29   ar
    25    29    31    1
    26    31    32   am
    27    31    33    2
    28    29    30   ar
    29     7     8    1
    30    14    15    1
    31    15    16    1
    32    16    11    1
    33     5     1    1
    34    30    25   ar
    35     8     2    1
    36    22    23    1
    37    32    34    1
    38    32    35    1
@<TRIPOS>MOLECULE
*****
 35 38 0 0 0
SMALL
GASTEIGER

@<TRIPOS>ATOM
      1 N         139.9236  139.5335  164.5923 N.3     1  UNL1       -0.2750
      2 C         140.7765  138.9516  163.5042 C.3     1  UNL1        0.0611
      3 C         140.1548  137.6574  163.0700 C.3     1  UNL1        0.0175
      4 C         138.9176  137.4395  163.8896 C.3     1  UNL1        0.0175
      5 C         138.7747  138.5990  164.8305 C.3     1  UNL1        0.0611
      6 C         138.8854  139.8641  165.6468 C.3     1  UNL1        0.0595
      7 C         140.0828  140.6978  165.2984 C.3     1  UNL1        0.1686
      8 C         141.0283  140.2415  164.2271 C.3     1  UNL1        0.0595
      9 C         140.1754  140.8235  165.3152 C.3     1  UNL1        0.0720
     10 C         139.3099  142.0177  165.0419 C.3     1  UNL1        0.0173
     11 C         139.6767  144.2149  161.1320 C.3     1  UNL1        0.0730
     12 C         138.7452  143.0452  161.2504 C.3     1  UNL1        0.0196
     13 C         138.6230  142.3128  162.5538 C.3     1  UNL1        0.0017
     14 C         139.4321  142.7501  163.7387 C.3     1  UNL1        0.0015
     15 C         140.3637  143.9199  163.6202 C.3     1  UNL1        0.0017
     16 C         140.4859  144.6523  162.3168 C.3     1  UNL1        0.0196
     17 C         142.2308  145.1119  156.6966 C.3     1  UNL1        0.1165
     18 N         141.0761  145.3957  157.6109 N.am    1  UNL1       -0.2607
     19 C         140.0436  146.4119  157.2219 C.3     1  UNL1        0.1165
     20 C         140.9537  144.6634  158.9143 C.2     1  UNL1        0.3040
     21 O         141.9862  143.6472  159.3034 O.2     1  UNL1       -0.2526
     22 N         139.7989  144.9473  159.8286 N.am    1  UNL1       -0.2904
     23 H         139.1213  145.6142  159.5733 H       1  UNL1        0.1509
     24 O         140.3345  141.9878  166.0214 O.3     1  UNL1       -0.4791
     25 C         141.1715  141.9990  167.2661 C.ar    1  UNL1        0.1385
     26 C         142.6389  142.2981  167.1805 C.ar    1  UNL1        0.0369
     27 C         143.4759  142.3092  168.4251 C.ar    1  UNL1        0.0033
     28 C         142.8455  142.0213  169.7555 C.ar    1  UNL1        0.0047
     29 C         141.3782  141.7222  169.8411 C.ar    1  UNL1        0.0561
     30 C         140.5412  141.7111  168.5963 C.ar    1  UNL1        0.0414
     31 C         140.7478  141.4343  171.1714 C.2     1  UNL1        0.2428
     32 N         140.3772  140.0275  171.5370 N.am    1  UNL1       -0.3253
     33 O         140.3559  142.2832  172.3444 O.2     1  UNL1       -0.2704
     34 H         140.5477  139.2932  170.9038 H       1  UNL1        0.1453
     35 H         139.9635  139.8386  172.4101 H       1  UNL1        0.1453
@<TRIPOS>BOND
     1    17    18    1
     2    18    19    1
     3    18    20   am
     4    20    21    2
     5    20    22   am
     6    11    22    1
     7    11    12    1
     8    12    13    1
     9    13    14    1
    10    14    10    1
    11    10     9    1
    12     9     1    1
    13     1     2    1
    14     2     3    1
    15     3     4    1
    16     5     4    1
    17     5     6    1
    18     6     7    1
    19     7    24    1
    20    24    25    1
    21    25    26   ar
    22    26    27   ar
    23    27    28   ar
    24    28    29   ar
    25    29    31    1
    26    31    32   am
    27    31    33    2
    28    29    30   ar
    29     7     8    1
    30    14    15    1
    31    15    16    1
    32    16    11    1
    33     5     1    1
    34    30    25   ar
    35     8     2    1
    36    22    23    1
    37    32    34    1
    38    32    35    1
@<TRIPOS>MOLECULE
*****
 35 38 0 0 0
SMALL
GASTEIGER

@<TRIPOS>ATOM
      1 N         139.7452  142.9546  164.3183 N.3     1  UNL1       -0.2750
      2 C         138.9299  144.2026  164.4848 C.3     1  UNL1        0.0611
      3 C         137.6603  144.0346  163.7039 C.3     1  UNL1        0.0175
      4 C         137.6909  142.6826  163.0549 C.3     1  UNL1        0.0175
      5 C         138.9794  142.0151  163.4346 C.3     1  UNL1        0.0611
      6 C         140.3278  141.5985  163.9707 C.3     1  UNL1        0.0595
      7 C         140.9737  142.6380  164.8379 C.3     1  UNL1        0.1686
      8 C         140.2748  143.9401  165.0950 C.3     1  UNL1        0.0595
      9 C         141.0901  142.6921  164.9285 C.3     1  UNL1        0.0720
     10 C         142.2814  143.4914  164.4905 C.3     1  UNL1        0.0173
     11 C         144.1847  142.6863  160.4931 C.3     1  UNL1        0.0730
     12 C         142.9163  143.4831  160.5730 C.3     1  UNL1        0.0196
     13 C         142.2819  143.7514  161.9055 C.3     1  UNL1        0.0017
     14 C         142.9158  143.2231  163.1581 C.3     1  UNL1        0.0015
     15 C         144.1842  142.4262  163.0781 C.3     1  UNL1        0.0017
     16 C         144.8186  142.1579  161.7457 C.3     1  UNL1        0.0196
     17 C         144.4429  139.9074  156.1100 C.3     1  UNL1        0.1165
     18 N         144.9482  141.0285  156.9691 N.am    1  UNL1       -0.2607
     19 C         146.0878  141.8812  156.4956 C.3     1  UNL1        0.1165
     20 C         144.3138  141.2969  158.3016 C.2     1  UNL1        0.3040
     21 O         143.1742  140.4442  158.7750 O.2     1  UNL1       -0.2526
     22 N         144.8191  142.4180  159.1606 N.am    1  UNL1       -0.2904
     23 H         145.5671  142.9776  158.8499 H       1  UNL1        0.1509
     24 O         142.3187  142.3755  165.4481 O.3     1  UNL1       -0.4791
     25 C         142.4213  141.6254  166.7431 C.ar    1  UNL1        0.1385
     26 C         142.5974  140.1358  166.7351 C.ar    1  UNL1        0.0369
     27 C         142.7000  139.3858  168.0300 C.ar    1  UNL1        0.0033
     28 C         142.6263  140.1254  169.3330 C.ar    1  UNL1        0.0047
     29 C         142.4502  141.6149  169.3409 C.ar    1  UNL1        0.0561
     30 C         142.3476  142.3650  168.0459 C.ar    1  UNL1        0.0414
     31 C         142.3765  142.3545  170.6439 C.2     1  UNL1        0.2428
     32 N         143.2835  143.5224  170.8957 N.am    1  UNL1       -0.3253
     33 O         141.5414  142.2053  171.8810 O.2     1  UNL1       -0.2704
     34 H         143.9271  143.8036  170.2058 H       1  UNL1        0.1453
     35 H         143.2352  144.0078  171.7509 H       1  UNL1        0.1453
@<TRIPOS>BOND
     1    17    18    1
     2    18    19    1
     3    18    20   am
     4    20    21    2
     5    20    22   am
     6    11    22    1
     7    11    12    1
     8    12    13    1
     9    13    14    1
    10    14    10    1
    11    10     9    1
    12     9     1    1
    13     1     2    1
    14     2     3    1
    15     3     4    1
    16     5     4    1
    17     5     6    1
    18     6     7    1
    19     7    24    1
    20    24    25    1
    21    25    26   ar
    22    26    27   ar
    23    27    28   ar
    24    28    29   ar
    25    29    31    1
    26    31    32   am
    27    31    33    2
    28    29    30   ar
    29     7     8    1
    30    14    15    1
    31    15    16    1
    32    16    11    1
    33     5     1    1
    34    30    25   ar
    35     8     2    1
    36    22    23    1
    37    32    34    1
    38    32    35    1
@<TRIPOS>MOLECULE
*****
 35 38 0 0 0
SMALL
GASTEIGER

@<TRIPOS>ATOM
      1 N         143.2847  141.8126  164.2769 N.3     1  UNL1       -0.2750
      2 C         144.5709  142.5821  164.3368 C.3     1  UNL1        0.0611
      3 C         145.5902  141.8456  163.5191 C.3     1  UNL1        0.0175
      4 C         144.9340  140.6210  162.9538 C.3     1  UNL1        0.0175
      5 C         143.5091  140.6005  163.4221 C.3     1  UNL1        0.0611
      6 C         142.1494  140.8373  164.0337 C.3     1  UNL1        0.0595
      7 C         142.0752  142.0861  164.8614 C.3     1  UNL1        0.1686
      8 C         143.2859  142.9585  165.0129 C.3     1  UNL1        0.0595
      9 C         141.9997  142.1890  164.9530 C.3     1  UNL1        0.0720
     10 C         141.1914  143.3429  164.4382 C.3     1  UNL1        0.0173
     11 C         139.1789  143.0664  160.4227 C.3     1  UNL1        0.0730
     12 C         138.4328  142.6761  161.6641 C.3     1  UNL1        0.0196
     13 C         139.1037  142.7683  163.0025 C.3     1  UNL1        0.0017
     14 C         140.5206  143.2508  163.0997 C.3     1  UNL1        0.0015
     15 C         141.2668  143.6411  161.8583 C.3     1  UNL1        0.0017
     16 C         140.5959  143.5489  160.5199 C.3     1  UNL1        0.0196
     17 C         137.9938  140.3391  156.1615 C.3     1  UNL1        0.1165
     18 N         137.9156  141.6105  156.9537 N.am    1  UNL1       -0.2607
     19 C         137.1665  142.7897  156.4074 C.3     1  UNL1        0.1165
     20 C         138.5864  141.7028  158.2922 C.2     1  UNL1        0.3040
     21 O         139.3355  140.5237  158.8385 O.2     1  UNL1       -0.2526
     22 N         138.5081  142.9742  159.0843 N.am    1  UNL1       -0.2904
     23 H         138.0164  143.7481  158.7257 H       1  UNL1        0.1509
     24 O         140.7901  142.4626  165.5375 O.3     1  UNL1       -0.4791
     25 C         140.3962  141.7976  166.8231 C.ar    1  UNL1        0.1385
     26 C         139.5923  140.5315  166.7970 C.ar    1  UNL1        0.0369
     27 C         139.1985  139.8666  168.0825 C.ar    1  UNL1        0.0033
     28 C         139.6085  140.4677  169.3942 C.ar    1  UNL1        0.0047
     29 C         140.4125  141.7337  169.4203 C.ar    1  UNL1        0.0561
     30 C         140.8063  142.3987  168.1347 C.ar    1  UNL1        0.0414
     31 C         140.8226  142.3348  170.7319 C.2     1  UNL1        0.2428
     32 N         141.9774  143.2903  170.7907 N.am    1  UNL1       -0.3253
     33 O         140.3185  142.2084  172.1391 O.2     1  UNL1       -0.2704
     34 H         142.4662  143.5229  169.9684 H       1  UNL1        0.1453
     35 H         142.2466  143.6848  171.6516 H       1  UNL1        0.1453
@<TRIPOS>BOND
     1    17    18    1
     2    18    19    1
     3    18    20   am
     4    20    21    2
     5    20    22   am
     6    11    22    1
     7    11    12    1
     8    12    13    1
     9    13    14    1
    10    14    10    1
    11    10     9    1
    12     9     1    1
    13     1     2    1
    14     2     3    1
    15     3     4    1
    16     5     4    1
    17     5     6    1
    18     6     7    1
    19     7    24    1
    20    24    25    1
    21    25    26   ar
    22    26    27   ar
    23    27    28   ar
    24    28    29   ar
    25    29    31    1
    26    31    32   am
    27    31    33    2
    28    29    30   ar
    29     7     8    1
    30    14    15    1
    31    15    16    1
    32    16    11    1
    33     5     1    1
    34    30    25   ar
    35     8     2    1
    36    22    23    1
    37    32    34    1
    38    32    35    1
@<TRIPOS>MOLECULE
*****
 35 38 0 0 0
SMALL
GASTEIGER

@<TRIPOS>ATOM
      1 N         139.3150  142.6060  164.9078 N.3     1  UNL1       -0.2750
      2 C         137.9882  142.6293  164.2085 C.3     1  UNL1        0.0611
      3 C         137.7267  144.0356  163.7572 C.3     1  UNL1        0.0175
      4 C         138.8919  144.8815  164.1776 C.3     1  UNL1        0.0175
      5 C         139.8735  143.9980  164.8887 C.3     1  UNL1        0.0611
      6 C         140.6599  142.8905  165.5477 C.3     1  UNL1        0.0595
      7 C         139.9776  141.5560  165.4892 C.3     1  UNL1        0.1686
      8 C         138.6417  141.4253  164.8196 C.3     1  UNL1        0.0595
      9 C         139.9685  141.4020  165.5189 C.3     1  UNL1        0.0720
     10 C         141.1738  140.7912  164.8676 C.3     1  UNL1        0.0173
     11 C         140.8551  139.0485  160.7309 C.3     1  UNL1        0.0730
     12 C         141.1249  140.5133  160.9090 C.3     1  UNL1        0.0196
     13 C         141.2311  141.0941  162.2879 C.3     1  UNL1        0.0017
     14 C         141.0676  140.2103  163.4888 C.3     1  UNL1        0.0015
     15 C         140.7977  138.7455  163.3107 C.3     1  UNL1        0.0017
     16 C         140.6915  138.1646  161.9318 C.3     1  UNL1        0.0196
     17 C         143.1281  137.2241  156.4292 C.3     1  UNL1        0.1165
     18 N         141.8855  137.5555  157.2012 N.am    1  UNL1       -0.2607
     19 C         140.5366  137.3060  156.5942 C.3     1  UNL1        0.1165
     20 C         141.9916  138.1363  158.5801 C.2     1  UNL1        0.3040
     21 O         143.3404  138.3858  159.1870 O.2     1  UNL1       -0.2526
     22 N         140.7489  138.4677  159.3520 N.am    1  UNL1       -0.2904
     23 H         139.8636  138.3040  158.9537 H       1  UNL1        0.1509
     24 O         140.6312  140.3520  166.1004 O.3     1  UNL1       -0.4791
     25 C         140.6267  140.1710  167.5894 C.ar    1  UNL1        0.1385
     26 C         139.4381  140.6061  168.3943 C.ar    1  UNL1        0.0369
     27 C         139.4336  140.4251  169.8832 C.ar    1  UNL1        0.0033
     28 C         140.6178  139.8091  170.5674 C.ar    1  UNL1        0.0047
     29 C         141.8064  139.3740  169.7626 C.ar    1  UNL1        0.0561
     30 C         141.8109  139.5550  168.2735 C.ar    1  UNL1        0.0414
     31 C         142.9906  138.7580  170.4468 C.2     1  UNL1        0.2428
     32 N         143.8542  139.5913  171.3468 N.am    1  UNL1       -0.3253
     33 O         143.5879  137.3820  170.4588 O.2     1  UNL1       -0.2704
     34 H         143.6437  140.5425  171.4884 H       1  UNL1        0.1453
     35 H         144.6314  139.1869  171.7959 H       1  UNL1        0.1453
@<TRIPOS>BOND
     1    17    18    1
     2    18    19    1
     3    18    20   am
     4    20    21    2
     5    20    22   am
     6    11    22    1
     7    11    12    1
     8    12    13    1
     9    13    14    1
    10    14    10    1
    11    10     9    1
    12     9     1    1
    13     1     2    1
    14     2     3    1
    15     3     4    1
    16     5     4    1
    17     5     6    1
    18     6     7    1
    19     7    24    1
    20    24    25    1
    21    25    26   ar
    22    26    27   ar
    23    27    28   ar
    24    28    29   ar
    25    29    31    1
    26    31    32   am
    27    31    33    2
    28    29    30   ar
    29     7     8    1
    30    14    15    1
    31    15    16    1
    32    16    11    1
    33     5     1    1
    34    30    25   ar
    35     8     2    1
    36    22    23    1
    37    32    34    1
    38    32    35    1
@<TRIPOS>MOLECULE
*****
 35 38 0 0 0
SMALL
GASTEIGER

@<TRIPOS>ATOM
      1 N         139.5544  142.8542  164.3613 N.3     1  UNL1       -0.2750
      2 C         138.4655  143.8802  164.2525 C.3     1  UNL1        0.0611
      3 C         138.9888  145.0272  163.4398 C.3     1  UNL1        0.0175
      4 C         140.4011  144.7102  163.0463 C.3     1  UNL1        0.0175
      5 C         140.7507  143.3672  163.6158 C.3     1  UNL1        0.0611
      6 C         140.8204  142.0221  164.2976 C.3     1  UNL1        0.0595
      7 C         139.5516  141.6421  165.0017 C.3     1  UNL1        0.1686
      8 C         138.3742  142.5711  164.9792 C.3     1  UNL1        0.0595
      9 C         139.4630  141.5452  165.0879 C.3     1  UNL1        0.0720
     10 C         138.6228  140.4348  164.5302 C.3     1  UNL1        0.0173
     11 C         139.5069  138.7810  160.4396 C.3     1  UNL1        0.0730
     12 C         140.0609  138.1041  161.6581 C.3     1  UNL1        0.0196
     13 C         139.7662  138.6554  163.0216 C.3     1  UNL1        0.0017
     14 C         138.9174  139.8836  163.1667 C.3     1  UNL1        0.0015
     15 C         138.3634  140.5606  161.9481 C.3     1  UNL1        0.0017
     16 C         138.6581  140.0093  160.5846 C.3     1  UNL1        0.0196
     17 C         142.7845  138.1320  156.4601 C.3     1  UNL1        0.1165
     18 N         141.4405  137.9052  157.0863 N.am    1  UNL1       -0.2607
     19 C         140.3912  137.1272  156.3490 C.3     1  UNL1        0.1165
     20 C         141.1456  138.4565  158.4499 C.2     1  UNL1        0.3040
     21 O         142.1949  139.2346  159.1872 O.2     1  UNL1       -0.2526
     22 N         139.8016  138.2297  159.0761 N.am    1  UNL1       -0.2904
     23 H         139.1129  137.7191  158.5922 H       1  UNL1        0.1509
     24 O         139.4602  140.3330  165.7284 O.3     1  UNL1       -0.4791
     25 C         140.3943  140.0392  166.8647 C.ar    1  UNL1        0.1385
     26 C         141.7809  139.5397  166.5859 C.ar    1  UNL1        0.0369
     27 C         142.7149  139.2460  167.7221 C.ar    1  UNL1        0.0033
     28 C         142.2624  139.4517  169.1374 C.ar    1  UNL1        0.0047
     29 C         140.8757  139.9512  169.4162 C.ar    1  UNL1        0.0561
     30 C         139.9417  140.2450  168.2799 C.ar    1  UNL1        0.0414
     31 C         140.4232  140.1570  170.8315 C.2     1  UNL1        0.2428
     32 N         139.6533  139.0800  171.5368 N.am    1  UNL1       -0.3253
     33 O         140.5603  141.2799  171.8165 O.2     1  UNL1       -0.2704
     34 H         139.4450  138.2381  171.0709 H       1  UNL1        0.1453
     35 H         139.3563  139.2151  172.4657 H       1  UNL1        0.1453
@<TRIPOS>BOND
     1    17    18    1
     2    18    19    1
     3    18    20   am
     4    20    21    2
     5    20    22   am
     6    11    22    1
     7    11    12    1
     8    12    13    1
     9    13    14    1
    10    14    10    1
    11    10     9    1
    12     9     1    1
    13     1     2    1
    14     2     3    1
    15     3     4    1
    16     5     4    1
    17     5     6    1
    18     6     7    1
    19     7    24    1
    20    24    25    1
    21    25    26   ar
    22    26    27   ar
    23    27    28   ar
    24    28    29   ar
    25    29    31    1
    26    31    32   am
    27    31    33    2
    28    29    30   ar
    29     7     8    1
    30    14    15    1
    31    15    16    1
    32    16    11    1
    33     5     1    1
    34    30    25   ar
    35     8     2    1
    36    22    23    1
    37    32    34    1
    38    32    35    1
@<TRIPOS>MOLECULE
*****
 35 38 0 0 0
SMALL
GASTEIGER

@<TRIPOS>ATOM
      1 N         141.3608  143.7415  163.3113 N.3     1  UNL1       -0.2750
      2 C         140.0459  143.2888  162.7491 C.3     1  UNL1        0.0611
      3 C         139.3325  144.4935  162.2108 C.3     1  UNL1        0.0175
      4 C         140.2066  145.6907  162.4402 C.3     1  UNL1        0.0175
      5 C         141.4601  145.2260  163.1204 C.3     1  UNL1        0.0611
      6 C         142.5938  144.4848  163.7871 C.3     1  UNL1        0.0595
      7 C         142.3539  143.0091  163.9087 C.3     1  UNL1        0.1686
      8 C         141.0799  142.4111  163.3897 C.3     1  UNL1        0.0595
      9 C         142.3949  142.8638  163.9519 C.3     1  UNL1        0.0720
     10 C         143.6760  142.5652  163.2310 C.3     1  UNL1        0.0173
     11 C         143.6495  139.8966  159.6077 C.3     1  UNL1        0.0730
     12 C         143.9670  139.3252  160.9577 C.3     1  UNL1        0.0196
     13 C         143.9758  140.2147  162.1655 C.3     1  UNL1        0.0017
     14 C         143.6672  141.6757  162.0233 C.3     1  UNL1        0.0015
     15 C         143.3496  142.2472  160.6731 C.3     1  UNL1        0.0017
     16 C         143.3408  141.3576  159.4654 C.3     1  UNL1        0.0196
     17 C         141.1011  136.7341  156.3667 C.3     1  UNL1        0.1165
     18 N         142.3664  137.4258  156.7795 N.am    1  UNL1       -0.2607
     19 C         143.6230  137.2280  155.9845 C.3     1  UNL1        0.1165
     20 C         142.3754  138.3154  157.9872 C.2     1  UNL1        0.3040
     21 O         141.1188  138.5132  158.7822 O.2     1  UNL1       -0.2526
     22 N         143.6407  139.0071  158.4000 N.am    1  UNL1       -0.2904
     23 H         144.4654  138.8773  157.8782 H       1  UNL1        0.1509
     24 O         143.3880  142.1314  164.5493 O.3     1  UNL1       -0.4791
     25 C         143.1320  141.5351  165.9017 C.ar    1  UNL1        0.1385
     26 C         142.6944  140.1053  166.0203 C.ar    1  UNL1        0.0369
     27 C         142.4384  139.5090  167.3726 C.ar    1  UNL1        0.0033
     28 C         142.6201  140.3425  168.6064 C.ar    1  UNL1        0.0047
     29 C         143.0577  141.7723  168.4878 C.ar    1  UNL1        0.0561
     30 C         143.3137  142.3686  167.1354 C.ar    1  UNL1        0.0414
     31 C         143.2394  142.6059  169.7216 C.2     1  UNL1        0.2428
     32 N         144.6182  142.8830  170.2432 N.am    1  UNL1       -0.3253
     33 O         142.2957  143.3009  170.6579 O.2     1  UNL1       -0.2704
     34 H         145.4040  142.5178  169.7758 H       1  UNL1        0.1453
     35 H         144.7374  143.4301  171.0530 H       1  UNL1        0.1453
@<TRIPOS>BOND
     1    17    18    1
     2    18    19    1
     3    18    20   am
     4    20    21    2
     5    20    22   am
     6    11    22    1
     7    11    12    1
     8    12    13    1
     9    13    14    1
    10    14    10    1
    11    10     9    1
    12     9     1    1
    13     1     2    1
    14     2     3    1
    15     3     4    1
    16     5     4    1
    17     5     6    1
    18     6     7    1
    19     7    24    1
    20    24    25    1
    21    25    26   ar
    22    26    27   ar
    23    27    28   ar
    24    28    29   ar
    25    29    31    1
    26    31    32   am
    27    31    33    2
    28    29    30   ar
    29     7     8    1
    30    14    15    1
    31    15    16    1
    32    16    11    1
    33     5     1    1
    34    30    25   ar
    35     8     2    1
    36    22    23    1
    37    32    34    1
    38    32    35    1
