@<TRIPOS>MOLECULE
*****
 32 34 0 0 0
SMALL
GASTEIGER

@<TRIPOS>ATOM
      1 C         141.2018  143.9690  161.7048 C.ar    1  UNL1        0.0553
      2 C         140.6635  142.5832  161.9041 C.ar    1  UNL1        0.0060
      3 C         140.3649  142.0865  163.2876 C.ar    1  UNL1        0.0148
      4 C         140.6046  142.9755  164.4717 C.ar    1  UNL1        0.0505
      5 C         141.1429  144.3613  164.2724 C.ar    1  UNL1        0.0148
      6 C         141.4415  144.8581  162.8889 C.ar    1  UNL1        0.0060
      7 C         141.3286  145.6350  158.2013 C.ar    1  UNL1        0.3086
      8 N         142.5915  144.8258  158.1833 N.ar    1  UNL1       -0.0923
      9 N         142.6977  144.1032  159.4935 N.ar    1  UNL1       -0.1058
     10 C         141.5004  144.4659  160.3213 C.ar    1  UNL1        0.2512
     11 O         140.6543  145.4125  159.5226 O.2     1  UNL1       -0.4048
     12 N         140.8278  146.5125  157.0926 N.pl3   1  UNL1       -0.2871
     13 H         140.4478  147.3971  157.2984 H       1  UNL1        0.1512
     14 C         140.9062  146.0424  155.6704 C.3     1  UNL1        0.0925
     15 C         139.7380  146.2385  154.7502 C.3     1  UNL1        0.0386
     16 C         138.7267  147.3079  155.0393 C.3     1  UNL1        0.0738
     17 N         139.1529  148.7444  155.1075 N.3     1  UNL1       -0.2726
     18 C         139.8491  149.6288  152.7659 C.3     1  UNL1        0.0188
     19 C         140.2086  149.2587  154.1742 C.3     1  UNL1        0.0721
     20 C         138.5233  149.6668  156.1089 C.3     1  UNL1        0.0721
     21 C         138.8424  151.1322  156.0831 C.3     1  UNL1        0.0188
     22 N         140.3060  142.4787  165.8552 N.am    1  UNL1       -0.2803
     23 C         141.4285  142.0903  166.7712 C.2     1  UNL1        0.2517
     24 O         142.8497  142.1988  166.3038 O.2     1  UNL1       -0.2697
     25 H         139.3732  142.4075  166.1620 H       1  UNL1        0.1552
     26 C         141.1299  141.5935  168.1547 C.ar    1  UNL1        0.0811
     27 C         141.4642  140.1810  168.5328 C.ar    1  UNL1        0.0068
     28 C         141.1656  139.6842  169.9163 C.ar    1  UNL1        0.0003
     29 C         140.5326  140.5999  170.9216 C.ar    1  UNL1        0.0023
     30 C         140.1983  142.0125  170.5436 C.ar    1  UNL1        0.0298
     31 C         140.4969  142.5092  169.1601 C.ar    1  UNL1        0.1445
     32 F         140.1626  143.9218  168.7820 F       1  UNL1       -0.2040
@<TRIPOS>BOND
     1    18    19    1
     2    19    17    1
     3    17    20    1
     4    20    21    1
     5    17    16    1
     6    16    15    1
     7    15    14    1
     8    14    12    1
     9    12     7    1
    10     7     8   ar
    11     8     9   ar
    12     9    10   ar
    13    10     1    1
    14     1     2   ar
    15     2     3   ar
    16     3     4   ar
    17     4    22    1
    18    22    23   am
    19    23    24    2
    20    23    26    1
    21    26    27   ar
    22    27    28   ar
    23    28    29   ar
    24    29    30   ar
    25    30    31   ar
    26    31    32    1
    27     4     5   ar
    28     5     6   ar
    29    10    11   ar
    30    11     7   ar
    31     6     1   ar
    32    31    26   ar
    33    12    13    1
    34    22    25    1
@<TRIPOS>MOLECULE
*****
 32 34 0 0 0
SMALL
GASTEIGER

@<TRIPOS>ATOM
      1 C         138.5009  140.9292  164.4078 C.ar    1  UNL1        0.0553
      2 C         138.0552  142.3564  164.2885 C.ar    1  UNL1        0.0060
      3 C         138.0342  143.0258  162.9463 C.ar    1  UNL1        0.0148
      4 C         138.4589  142.2679  161.7235 C.ar    1  UNL1        0.0505
      5 C         138.9046  140.8407  161.8429 C.ar    1  UNL1        0.0148
      6 C         138.9256  140.1713  163.1850 C.ar    1  UNL1        0.0060
      7 C         139.0553  139.7321  168.0582 C.ar    1  UNL1        0.3086
      8 N         138.0531  138.7271  167.5727 N.ar    1  UNL1       -0.0923
      9 N         137.7235  139.0532  166.1461 N.ar    1  UNL1       -0.1058
     10 C         138.5219  140.2598  165.7501 C.ar    1  UNL1        0.2512
     11 O         139.3450  140.6793  166.9318 O.2     1  UNL1       -0.4048
     12 N         139.6613  139.7813  169.4295 N.pl3   1  UNL1       -0.2871
     13 H         139.2673  139.2532  170.1610 H       1  UNL1        0.1512
     14 C         140.8676  140.6350  169.6862 C.3     1  UNL1        0.0925
     15 C         142.1909  140.2637  169.0854 C.3     1  UNL1        0.0386
     16 C         142.7758  141.0988  167.9852 C.3     1  UNL1        0.0738
     17 N         142.7121  140.6198  166.5652 N.3     1  UNL1       -0.2726
     18 C         141.7674  142.6114  165.1899 C.3     1  UNL1        0.0188
     19 C         142.8461  141.5988  165.4366 C.3     1  UNL1        0.0721
     20 C         142.5143  139.1618  166.2736 C.3     1  UNL1        0.0721
     21 C         143.6802  138.2200  166.3336 C.3     1  UNL1        0.0188
     22 N         138.4379  142.9373  160.3813 N.am    1  UNL1       -0.2803
     23 C         139.7261  143.3015  159.7045 C.2     1  UNL1        0.2517
     24 O         141.0353  142.9962  160.3700 O.2     1  UNL1       -0.2697
     25 H         137.5786  143.1377  159.9445 H       1  UNL1        0.1552
     26 C         139.7051  143.9709  158.3623 C.ar    1  UNL1        0.0811
     27 C         138.9410  143.3541  157.2284 C.ar    1  UNL1        0.0068
     28 C         138.9201  144.0235  155.8863 C.ar    1  UNL1        0.0003
     29 C         139.6631  145.3098  155.6780 C.ar    1  UNL1        0.0023
     30 C         140.4271  145.9266  156.8119 C.ar    1  UNL1        0.0298
     31 C         140.4481  145.2572  158.1540 C.ar    1  UNL1        0.1445
     32 F         141.2122  145.8740  159.2880 F       1  UNL1       -0.2040
@<TRIPOS>BOND
     1    18    19    1
     2    19    17    1
     3    17    20    1
     4    20    21    1
     5    17    16    1
     6    16    15    1
     7    15    14    1
     8    14    12    1
     9    12     7    1
    10     7     8   ar
    11     8     9   ar
    12     9    10   ar
    13    10     1    1
    14     1     2   ar
    15     2     3   ar
    16     3     4   ar
    17     4    22    1
    18    22    23   am
    19    23    24    2
    20    23    26    1
    21    26    27   ar
    22    27    28   ar
    23    28    29   ar
    24    29    30   ar
    25    30    31   ar
    26    31    32    1
    27     4     5   ar
    28     5     6   ar
    29    10    11   ar
    30    11     7   ar
    31     6     1   ar
    32    31    26   ar
    33    12    13    1
    34    22    25    1
@<TRIPOS>MOLECULE
*****
 32 34 0 0 0
SMALL
GASTEIGER

@<TRIPOS>ATOM
      1 C         142.5833  138.2974  160.3956 C.ar    1  UNL1        0.0553
      2 C         141.1620  138.2958  160.8749 C.ar    1  UNL1        0.0060
      3 C         140.8662  138.3336  162.3449 C.ar    1  UNL1        0.0148
      4 C         141.9918  138.3731  163.3357 C.ar    1  UNL1        0.0505
      5 C         143.4131  138.3747  162.8564 C.ar    1  UNL1        0.0148
      6 C         143.7089  138.3369  161.3864 C.ar    1  UNL1        0.0060
      7 C         142.9419  137.5654  156.6007 C.ar    1  UNL1        0.3086
      8 N         143.7271  138.8374  156.7260 N.ar    1  UNL1       -0.0923
      9 N         143.6883  139.2664  158.1628 N.ar    1  UNL1       -0.1058
     10 C         142.8792  138.2596  158.9255 C.ar    1  UNL1        0.2512
     11 O         142.4180  137.2083  157.9601 O.2     1  UNL1       -0.4048
     12 N         142.7198  136.7871  155.3378 N.pl3   1  UNL1       -0.2871
     13 H         142.1309  137.1463  154.6353 H       1  UNL1        0.1512
     14 C         143.3950  135.4616  155.1450 C.3     1  UNL1        0.0925
     15 C         142.6371  134.3139  154.5462 C.3     1  UNL1        0.0386
     16 C         141.7647  133.4568  155.4146 C.3     1  UNL1        0.0738
     17 N         142.2358  132.0986  155.8427 N.3     1  UNL1       -0.2726
     18 C         144.7016  131.9396  156.6454 C.3     1  UNL1        0.0188
     19 C         143.2342  131.9670  156.9545 C.3     1  UNL1        0.0721
     20 C         141.7085  130.8720  155.1592 C.3     1  UNL1        0.0721
     21 C         140.2898  130.8353  154.6734 C.3     1  UNL1        0.0188
     22 N         141.6959  138.4109  164.8058 N.am    1  UNL1       -0.2803
     23 C         141.8434  139.6945  165.5677 C.2     1  UNL1        0.2517
     24 O         142.2868  140.9403  164.8596 O.2     1  UNL1       -0.2697
     25 H         141.4049  137.5933  165.2705 H       1  UNL1        0.1552
     26 C         141.5475  139.7324  167.0378 C.ar    1  UNL1        0.0811
     27 C         142.6379  139.4547  168.0296 C.ar    1  UNL1        0.0068
     28 C         142.3421  139.4925  169.4996 C.ar    1  UNL1        0.0003
     29 C         140.9558  139.8081  169.9778 C.ar    1  UNL1        0.0023
     30 C         139.8654  140.0858  168.9859 C.ar    1  UNL1        0.0298
     31 C         140.1613  140.0479  167.5159 C.ar    1  UNL1        0.1445
     32 F         139.0708  140.3257  166.5239 F       1  UNL1       -0.2040
@<TRIPOS>BOND
     1    18    19    1
     2    19    17    1
     3    17    20    1
     4    20    21    1
     5    17    16    1
     6    16    15    1
     7    15    14    1
     8    14    12    1
     9    12     7    1
    10     7     8   ar
    11     8     9   ar
    12     9    10   ar
    13    10     1    1
    14     1     2   ar
    15     2     3   ar
    16     3     4   ar
    17     4    22    1
    18    22    23   am
    19    23    24    2
    20    23    26    1
    21    26    27   ar
    22    27    28   ar
    23    28    29   ar
    24    29    30   ar
    25    30    31   ar
    26    31    32    1
    27     4     5   ar
    28     5     6   ar
    29    10    11   ar
    30    11     7   ar
    31     6     1   ar
    32    31    26   ar
    33    12    13    1
    34    22    25    1
@<TRIPOS>MOLECULE
*****
 32 34 0 0 0
SMALL
GASTEIGER

@<TRIPOS>ATOM
      1 C         143.2753  138.9520  161.4952 C.ar    1  UNL1        0.0553
      2 C         142.2651  138.2289  162.3357 C.ar    1  UNL1        0.0060
      3 C         142.2339  138.4422  163.8201 C.ar    1  UNL1        0.0148
      4 C         143.2128  139.3787  164.4640 C.ar    1  UNL1        0.0505
      5 C         144.2230  140.1019  163.6236 C.ar    1  UNL1        0.0148
      6 C         144.2543  139.8885  162.1392 C.ar    1  UNL1        0.0060
      7 C         142.9444  137.7881  157.8072 C.ar    1  UNL1        0.3086
      8 N         143.7652  139.0332  157.6457 N.ar    1  UNL1       -0.0923
      9 N         143.9891  139.6207  159.0075 N.ar    1  UNL1       -0.1058
     10 C         143.3066  138.7388  160.0108 C.ar    1  UNL1        0.2512
     11 O         142.6610  137.6062  159.2689 O.2     1  UNL1       -0.4048
     12 N         142.4873  136.8837  156.7013 N.pl3   1  UNL1       -0.2871
     13 H         141.5435  136.6083  156.6489 H       1  UNL1        0.1512
     14 C         143.4680  136.3990  155.6750 C.3     1  UNL1        0.0925
     15 C         143.7217  134.9292  155.5154 C.3     1  UNL1        0.0386
     16 C         143.2218  133.9652  156.5501 C.3     1  UNL1        0.0738
     17 N         143.4837  132.4964  156.3953 N.3     1  UNL1       -0.2726
     18 C         145.4915  132.2098  158.0191 C.3     1  UNL1        0.0188
     19 C         144.8455  131.9419  156.6922 C.3     1  UNL1        0.0721
     20 C         142.3838  131.5820  155.9436 C.3     1  UNL1        0.0721
     21 C         141.2816  132.1077  155.0725 C.3     1  UNL1        0.0188
     22 N         143.1815  139.5919  165.9485 N.am    1  UNL1       -0.2803
     23 C         142.1924  140.5469  166.5483 C.2     1  UNL1        0.2517
     24 O         141.2346  141.2885  165.6637 O.2     1  UNL1       -0.2697
     25 H         143.8101  139.1052  166.5291 H       1  UNL1        0.1552
     26 C         142.1611  140.7601  168.0328 C.ar    1  UNL1        0.0811
     27 C         141.3127  139.8776  168.8996 C.ar    1  UNL1        0.0068
     28 C         141.2815  140.0909  170.3840 C.ar    1  UNL1        0.0003
     29 C         142.0986  141.1868  171.0016 C.ar    1  UNL1        0.0023
     30 C         142.9470  142.0693  170.1348 C.ar    1  UNL1        0.0298
     31 C         142.9783  141.8560  168.6504 C.ar    1  UNL1        0.1445
     32 F         143.8267  142.7385  167.7836 F       1  UNL1       -0.2040
@<TRIPOS>BOND
     1    18    19    1
     2    19    17    1
     3    17    20    1
     4    20    21    1
     5    17    16    1
     6    16    15    1
     7    15    14    1
     8    14    12    1
     9    12     7    1
    10     7     8   ar
    11     8     9   ar
    12     9    10   ar
    13    10     1    1
    14     1     2   ar
    15     2     3   ar
    16     3     4   ar
    17     4    22    1
    18    22    23   am
    19    23    24    2
    20    23    26    1
    21    26    27   ar
    22    27    28   ar
    23    28    29   ar
    24    29    30   ar
    25    30    31   ar
    26    31    32    1
    27     4     5   ar
    28     5     6   ar
    29    10    11   ar
    30    11     7   ar
    31     6     1   ar
    32    31    26   ar
    33    12    13    1
    34    22    25    1
@<TRIPOS>MOLECULE
*****
 32 34 0 0 0
SMALL
GASTEIGER

@<TRIPOS>ATOM
      1 C         142.5772  138.0682  159.8631 C.ar    1  UNL1        0.0553
      2 C         143.6241  137.9165  160.9264 C.ar    1  UNL1        0.0060
      3 C         143.2440  138.0226  162.3736 C.ar    1  UNL1        0.0148
      4 C         141.8170  138.2802  162.7573 C.ar    1  UNL1        0.0505
      5 C         140.7701  138.4319  161.6939 C.ar    1  UNL1        0.0148
      6 C         141.1502  138.3259  160.2468 C.ar    1  UNL1        0.0060
      7 C         143.3687  137.0694  156.1968 C.ar    1  UNL1        0.3086
      8 N         143.7153  138.5288  156.1809 N.ar    1  UNL1       -0.0923
      9 N         143.4610  139.0805  157.5524 N.ar    1  UNL1       -0.1058
     10 C         142.9572  137.9622  158.4158 C.ar    1  UNL1        0.2512
     11 O         142.9001  136.7193  157.5780 O.2     1  UNL1       -0.4048
     12 N         143.4723  136.1259  155.0353 N.pl3   1  UNL1       -0.2871
     13 H         144.2869  135.5874  154.9097 H       1  UNL1        0.1512
     14 C         142.3350  136.0029  154.0651 C.3     1  UNL1        0.0925
     15 C         141.6186  134.6940  153.9112 C.3     1  UNL1        0.0386
     16 C         141.4378  133.7941  155.0975 C.3     1  UNL1        0.0738
     17 N         142.6049  133.0228  155.6386 N.3     1  UNL1       -0.2726
     18 C         144.3628  133.3017  157.5312 C.3     1  UNL1        0.0188
     19 C         142.9413  133.0973  157.0985 C.3     1  UNL1        0.0721
     20 C         143.4357  132.1769  154.7199 C.3     1  UNL1        0.0721
     21 C         142.7780  131.1519  153.8442 C.3     1  UNL1        0.0188
     22 N         141.4370  138.3863  164.2046 N.am    1  UNL1       -0.2803
     23 C         141.7229  139.6474  164.9646 C.2     1  UNL1        0.2517
     24 O         142.3889  140.8026  164.2775 O.2     1  UNL1       -0.2697
     25 H         140.9999  137.6281  164.6556 H       1  UNL1        0.1552
     26 C         141.3429  139.7534  166.4119 C.ar    1  UNL1        0.0811
     27 C         142.3939  139.6269  167.4745 C.ar    1  UNL1        0.0068
     28 C         142.0139  139.7330  168.9216 C.ar    1  UNL1        0.0003
     29 C         140.5828  139.9655  169.3061 C.ar    1  UNL1        0.0023
     30 C         139.5317  140.0920  168.2435 C.ar    1  UNL1        0.0298
     31 C         139.9118  139.9859  166.7964 C.ar    1  UNL1        0.1445
     32 F         138.8607  140.1124  165.7336 F       1  UNL1       -0.2040
@<TRIPOS>BOND
     1    18    19    1
     2    19    17    1
     3    17    20    1
     4    20    21    1
     5    17    16    1
     6    16    15    1
     7    15    14    1
     8    14    12    1
     9    12     7    1
    10     7     8   ar
    11     8     9   ar
    12     9    10   ar
    13    10     1    1
    14     1     2   ar
    15     2     3   ar
    16     3     4   ar
    17     4    22    1
    18    22    23   am
    19    23    24    2
    20    23    26    1
    21    26    27   ar
    22    27    28   ar
    23    28    29   ar
    24    29    30   ar
    25    30    31   ar
    26    31    32    1
    27     4     5   ar
    28     5     6   ar
    29    10    11   ar
    30    11     7   ar
    31     6     1   ar
    32    31    26   ar
    33    12    13    1
    34    22    25    1
@<TRIPOS>MOLECULE
*****
 32 34 0 0 0
SMALL
GASTEIGER

@<TRIPOS>ATOM
      1 C         140.3335  144.4534  161.2840 C.ar    1  UNL1        0.0553
      2 C         139.3399  143.4085  161.6974 C.ar    1  UNL1        0.0060
      3 C         139.1565  143.0807  163.1495 C.ar    1  UNL1        0.0148
      4 C         139.9668  143.7978  164.1884 C.ar    1  UNL1        0.0505
      5 C         140.9605  144.8426  163.7751 C.ar    1  UNL1        0.0148
      6 C         141.1438  145.1704  162.3229 C.ar    1  UNL1        0.0060
      7 C         140.1423  144.9593  157.4404 C.ar    1  UNL1        0.3086
      8 N         141.4560  145.6122  157.7537 N.ar    1  UNL1       -0.0923
      9 N         141.6875  145.5021  159.2316 N.ar    1  UNL1       -0.1058
     10 C         140.5169  144.7812  159.8318 C.ar    1  UNL1        0.2512
     11 O         139.5619  144.4458  158.7248 O.2     1  UNL1       -0.4048
     12 N         139.5185  144.8408  156.0814 N.pl3   1  UNL1       -0.2871
     13 H         139.5733  143.9912  155.5870 H       1  UNL1        0.1512
     14 C         138.8112  146.0167  155.4757 C.3     1  UNL1        0.0925
     15 C         139.2377  147.4112  155.8276 C.3     1  UNL1        0.0386
     16 C         139.7678  148.3246  154.7624 C.3     1  UNL1        0.0738
     17 N         139.2230  149.7156  154.6280 N.3     1  UNL1       -0.2726
     18 C         138.9919  151.2864  156.6845 C.3     1  UNL1        0.0188
     19 C         138.3875  150.3033  155.7265 C.3     1  UNL1        0.0721
     20 C         139.5137  150.5191  153.3952 C.3     1  UNL1        0.0721
     21 C         139.8374  149.8240  152.1060 C.3     1  UNL1        0.0188
     22 N         139.7835  143.4699  165.6407 N.am    1  UNL1       -0.2803
     23 C         140.5901  142.3727  166.2695 C.2     1  UNL1        0.2517
     24 O         141.5801  141.6033  165.4461 O.2     1  UNL1       -0.2697
     25 H         139.1337  143.9749  166.1810 H       1  UNL1        0.1552
     26 C         140.4067  142.0449  167.7217 C.ar    1  UNL1        0.0811
     27 C         140.5637  143.1175  168.7584 C.ar    1  UNL1        0.0068
     28 C         140.3803  142.7897  170.2106 C.ar    1  UNL1        0.0003
     29 C         140.0399  141.3891  170.6261 C.ar    1  UNL1        0.0023
     30 C         139.8829  140.3165  169.5894 C.ar    1  UNL1        0.0298
     31 C         140.0663  140.6443  168.1373 C.ar    1  UNL1        0.1445
     32 F         139.9093  139.5716  167.1005 F       1  UNL1       -0.2040
@<TRIPOS>BOND
     1    18    19    1
     2    19    17    1
     3    17    20    1
     4    20    21    1
     5    17    16    1
     6    16    15    1
     7    15    14    1
     8    14    12    1
     9    12     7    1
    10     7     8   ar
    11     8     9   ar
    12     9    10   ar
    13    10     1    1
    14     1     2   ar
    15     2     3   ar
    16     3     4   ar
    17     4    22    1
    18    22    23   am
    19    23    24    2
    20    23    26    1
    21    26    27   ar
    22    27    28   ar
    23    28    29   ar
    24    29    30   ar
    25    30    31   ar
    26    31    32    1
    27     4     5   ar
    28     5     6   ar
    29    10    11   ar
    30    11     7   ar
    31     6     1   ar
    32    31    26   ar
    33    12    13    1
    34    22    25    1
@<TRIPOS>MOLECULE
*****
 32 34 0 0 0
SMALL
GASTEIGER

@<TRIPOS>ATOM
      1 C         143.5218  140.1861  160.0632 C.ar    1  UNL1        0.0553
      2 C         143.3969  138.7678  160.5351 C.ar    1  UNL1        0.0060
      3 C         142.9074  137.7054  159.5963 C.ar    1  UNL1        0.0148
      4 C         142.5428  138.0613  158.1854 C.ar    1  UNL1        0.0505
      5 C         142.6677  139.4796  157.7135 C.ar    1  UNL1        0.0148
      6 C         143.1572  140.5420  158.6524 C.ar    1  UNL1        0.0060
      7 C         144.3275  143.3877  162.1044 C.ar    1  UNL1        0.3086
      8 N         145.2018  142.3795  162.7895 N.ar    1  UNL1       -0.0923
      9 N         145.0064  141.0576  162.1082 N.ar    1  UNL1       -0.1058
     10 C         144.0113  141.2487  161.0021 C.ar    1  UNL1        0.2512
     11 O         143.5917  142.6888  160.9998 O.2     1  UNL1       -0.4048
     12 N         144.2096  144.8399  162.4614 N.pl3   1  UNL1       -0.2871
     13 H         144.5786  145.5262  161.8597 H       1  UNL1        0.1512
     14 C         143.5295  145.2463  163.7350 C.3     1  UNL1        0.0925
     15 C         142.0384  145.1377  163.8568 C.3     1  UNL1        0.0386
     16 C         141.4253  143.9401  164.5200 C.3     1  UNL1        0.0738
     17 N         140.3858  143.1339  163.7994 N.3     1  UNL1       -0.2726
     18 C         140.2909  141.6778  161.6498 C.3     1  UNL1        0.0188
     19 C         140.7825  141.8966  163.0499 C.3     1  UNL1        0.0721
     20 C         138.9493  143.5649  163.8283 C.3     1  UNL1        0.0721
     21 C         138.4711  144.5103  164.8902 C.3     1  UNL1        0.0188
     22 N         142.0533  136.9988  157.2465 N.am    1  UNL1       -0.2803
     23 C         142.9568  136.4750  156.1699 C.2     1  UNL1        0.2517
     24 O         144.3499  137.0138  156.0321 O.2     1  UNL1       -0.2697
     25 H         141.1389  136.6451  157.3370 H       1  UNL1        0.1552
     26 C         142.4673  135.4125  155.2310 C.ar    1  UNL1        0.0811
     27 C         142.1829  134.0318  155.7435 C.ar    1  UNL1        0.0068
     28 C         141.6934  132.9694  154.8046 C.ar    1  UNL1        0.0003
     29 C         141.4883  133.2876  153.3532 C.ar    1  UNL1        0.0023
     30 C         141.7727  134.6683  152.8406 C.ar    1  UNL1        0.0298
     31 C         142.2622  135.7308  153.7795 C.ar    1  UNL1        0.1445
     32 F         142.5466  137.1116  153.2670 F       1  UNL1       -0.2040
@<TRIPOS>BOND
     1    18    19    1
     2    19    17    1
     3    17    20    1
     4    20    21    1
     5    17    16    1
     6    16    15    1
     7    15    14    1
     8    14    12    1
     9    12     7    1
    10     7     8   ar
    11     8     9   ar
    12     9    10   ar
    13    10     1    1
    14     1     2   ar
    15     2     3   ar
    16     3     4   ar
    17     4    22    1
    18    22    23   am
    19    23    24    2
    20    23    26    1
    21    26    27   ar
    22    27    28   ar
    23    28    29   ar
    24    29    30   ar
    25    30    31   ar
    26    31    32    1
    27     4     5   ar
    28     5     6   ar
    29    10    11   ar
    30    11     7   ar
    31     6     1   ar
    32    31    26   ar
    33    12    13    1
    34    22    25    1
@<TRIPOS>MOLECULE
*****
 32 34 0 0 0
SMALL
GASTEIGER

@<TRIPOS>ATOM
      1 C         139.5188  139.4774  161.0229 C.ar    1  UNL1        0.0553
      2 C         139.6585  138.4611  162.1172 C.ar    1  UNL1        0.0060
      3 C         139.5176  138.8787  163.5510 C.ar    1  UNL1        0.0148
      4 C         139.2370  140.3126  163.8905 C.ar    1  UNL1        0.0505
      5 C         139.0973  141.3289  162.7961 C.ar    1  UNL1        0.0148
      6 C         139.2382  140.9113  161.3624 C.ar    1  UNL1        0.0060
      7 C         140.5134  138.0581  157.5499 C.ar    1  UNL1        0.3086
      8 N         139.2398  138.7766  157.2155 N.ar    1  UNL1       -0.0923
      9 N         138.7123  139.3957  158.4758 N.ar    1  UNL1       -0.1058
     10 C         139.6598  139.0599  159.5891 C.ar    1  UNL1        0.2512
     11 O         140.7729  138.2332  159.0168 O.2     1  UNL1       -0.4048
     12 N         141.3760  137.2980  156.5864 N.pl3   1  UNL1       -0.2871
     13 H         141.0387  137.0846  155.6864 H       1  UNL1        0.1512
     14 C         142.7523  136.8629  156.9943 C.3     1  UNL1        0.0925
     15 C         143.4153  135.7156  156.2914 C.3     1  UNL1        0.0386
     16 C         143.5515  134.3908  156.9816 C.3     1  UNL1        0.0738
     17 N         143.7227  133.1385  156.1741 N.3     1  UNL1       -0.2726
     18 C         144.8803  130.8400  155.8180 C.3     1  UNL1        0.0188
     19 C         144.7991  132.1568  156.5315 C.3     1  UNL1        0.0721
     20 C         142.8175  132.8676  155.0091 C.3     1  UNL1        0.0721
     21 C         141.3509  132.6472  155.2342 C.3     1  UNL1        0.0188
     22 N         139.0960  140.7301  165.3243 N.am    1  UNL1       -0.2803
     23 C         140.3070  141.1406  166.1084 C.2     1  UNL1        0.2517
     24 O         141.6590  141.1336  165.4588 O.2     1  UNL1       -0.2697
     25 H         138.2087  140.7348  165.7507 H       1  UNL1        0.1552
     26 C         140.1661  141.5582  167.5423 C.ar    1  UNL1        0.0811
     27 C         140.6251  142.9188  167.9758 C.ar    1  UNL1        0.0068
     28 C         140.4841  143.3363  169.4096 C.ar    1  UNL1        0.0003
     29 C         139.8842  142.3931  170.4099 C.ar    1  UNL1        0.0023
     30 C         139.4252  141.0325  169.9764 C.ar    1  UNL1        0.0298
     31 C         139.5662  140.6150  168.5426 C.ar    1  UNL1        0.1445
     32 F         139.1072  139.2543  168.1090 F       1  UNL1       -0.2040
@<TRIPOS>BOND
     1    18    19    1
     2    19    17    1
     3    17    20    1
     4    20    21    1
     5    17    16    1
     6    16    15    1
     7    15    14    1
     8    14    12    1
     9    12     7    1
    10     7     8   ar
    11     8     9   ar
    12     9    10   ar
    13    10     1    1
    14     1     2   ar
    15     2     3   ar
    16     3     4   ar
    17     4    22    1
    18    22    23   am
    19    23    24    2
    20    23    26    1
    21    26    27   ar
    22    27    28   ar
    23    28    29   ar
    24    29    30   ar
    25    30    31   ar
    26    31    32    1
    27     4     5   ar
    28     5     6   ar
    29    10    11   ar
    30    11     7   ar
    31     6     1   ar
    32    31    26   ar
    33    12    13    1
    34    22    25    1
@<TRIPOS>MOLECULE
*****
 32 34 0 0 0
SMALL
GASTEIGER

@<TRIPOS>ATOM
      1 C         138.2604  139.5207  164.1706 C.ar    1  UNL1        0.0553
      2 C         137.7972  140.7848  163.5092 C.ar    1  UNL1        0.0060
      3 C         137.6670  140.8457  162.0161 C.ar    1  UNL1        0.0148
      4 C         138.0000  139.6426  161.1844 C.ar    1  UNL1        0.0505
      5 C         138.4632  138.3786  161.8458 C.ar    1  UNL1        0.0148
      6 C         138.5934  138.3176  163.3389 C.ar    1  UNL1        0.0060
      7 C         139.1501  139.8647  167.9330 C.ar    1  UNL1        0.3086
      8 N         138.0318  138.8665  167.9897 N.ar    1  UNL1       -0.0923
      9 N         137.5625  138.6162  166.5872 N.ar    1  UNL1       -0.1058
     10 C         138.3906  139.4596  165.6637 C.ar    1  UNL1        0.2512
     11 O         139.3718  140.2313  166.4955 O.2     1  UNL1       -0.4048
     12 N         139.9127  140.4021  169.1076 N.pl3   1  UNL1       -0.2871
     13 H         140.1740  139.8004  169.8418 H       1  UNL1        0.1512
     14 C         140.2772  141.8560  169.1637 C.3     1  UNL1        0.0925
     15 C         141.3055  142.4083  168.2215 C.3     1  UNL1        0.0386
     16 C         142.6237  141.7116  168.0578 C.3     1  UNL1        0.0738
     17 N         142.8306  140.7557  166.9206 N.3     1  UNL1       -0.2726
     18 C         143.5795  138.3486  166.2922 C.3     1  UNL1        0.0188
     19 C         142.7903  139.2766  167.1672 C.3     1  UNL1        0.0721
     20 C         143.0778  141.2787  165.5366 C.3     1  UNL1        0.0721
     21 C         141.9489  141.3581  164.5521 C.3     1  UNL1        0.0188
     22 N         137.8698  139.7037  159.6913 N.am    1  UNL1       -0.2803
     23 C         139.0743  139.9900  158.8445 C.2     1  UNL1        0.2517
     24 O         140.4091  140.2154  159.4907 O.2     1  UNL1       -0.2697
     25 H         136.9937  139.5558  159.2671 H       1  UNL1        0.1552
     26 C         138.9441  140.0511  157.3514 C.ar    1  UNL1        0.0811
     27 C         138.4441  141.3025  156.6927 C.ar    1  UNL1        0.0068
     28 C         138.3139  141.3635  155.1996 C.ar    1  UNL1        0.0003
     29 C         138.6837  140.1731  154.3652 C.ar    1  UNL1        0.0023
     30 C         139.1836  138.9216  155.0239 C.ar    1  UNL1        0.0298
     31 C         139.3138  138.8607  156.5170 C.ar    1  UNL1        0.1445
     32 F         139.8138  137.6092  157.1758 F       1  UNL1       -0.2040
@<TRIPOS>BOND
     1    18    19    1
     2    19    17    1
     3    17    20    1
     4    20    21    1
     5    17    16    1
     6    16    15    1
     7    15    14    1
     8    14    12    1
     9    12     7    1
    10     7     8   ar
    11     8     9   ar
    12     9    10   ar
    13    10     1    1
    14     1     2   ar
    15     2     3   ar
    16     3     4   ar
    17     4    22    1
    18    22    23   am
    19    23    24    2
    20    23    26    1
    21    26    27   ar
    22    27    28   ar
    23    28    29   ar
    24    29    30   ar
    25    30    31   ar
    26    31    32    1
    27     4     5   ar
    28     5     6   ar
    29    10    11   ar
    30    11     7   ar
    31     6     1   ar
    32    31    26   ar
    33    12    13    1
    34    22    25    1
