@<TRIPOS>MOLECULE
*****
 30 32 0 0 0
SMALL
GASTEIGER

@<TRIPOS>ATOM
      1 N         139.3862  141.0175  164.6200 N.pl3   1  UNL1       -0.3034
      2 C         139.9372  145.2455  161.5054 C.2     1  UNL1        0.2526
      3 O         139.1562  146.4747  161.1461 O.2     1  UNL1       -0.2723
      4 N         139.3739  144.2587  162.4846 N.am    1  UNL1       -0.2758
      5 C         138.0501  144.3660  163.1818 C.3     1  UNL1        0.0953
      6 C         137.8936  143.1648  164.0666 C.3     1  UNL1        0.0430
      7 C         139.1207  142.3153  163.9162 C.3     1  UNL1        0.0946
      8 C         140.0355  142.9913  162.9384 C.3     1  UNL1        0.1131
      9 C         141.3839  144.6463  159.4323 C.3     1  UNL1        0.0417
     10 C         141.2814  145.0033  160.8855 C.3     1  UNL1        0.1869
     11 O         142.5232  145.1182  161.7190 O.3     1  UNL1       -0.3758
     12 H         142.2816  145.3539  162.6283 H       1  UNL1        0.2110
     13 C         139.6234  141.0024  166.1010 C.ar    1  UNL1        0.0490
     14 C         139.1321  139.8512  166.9276 C.ar    1  UNL1        0.0153
     15 C         139.3693  139.8360  168.4086 C.ar    1  UNL1        0.0124
     16 C         140.0979  140.9721  169.0631 C.ar    1  UNL1        0.0791
     17 C         140.5893  142.1234  168.2366 C.ar    1  UNL1        0.0685
     18 CL        141.3178  143.2595  168.8911 Cl      1  UNL1       -0.0815
     19 C         140.3520  142.1386  166.7555 C.ar    1  UNL1        0.0266
     20 C         140.3351  140.9570  170.5441 C.1     1  UNL1        0.1013
     21 N         140.5723  140.9419  172.0252 N.1     1  UNL1       -0.1908
     22 C         139.4145  139.7349  163.8427 C.3     1  UNL1        0.1186
     23 C         140.7115  139.2193  163.2934 C.ar    1  UNL1        0.0090
     24 C         142.0055  139.5832  163.9590 C.ar    1  UNL1        0.0096
     25 C         143.3025  139.0676  163.4096 C.ar    1  UNL1        0.0575
     26 CL        144.5966  139.4316  164.0753 Cl      1  UNL1       -0.0823
     27 C         143.3056  138.1881  162.1946 C.ar    1  UNL1        0.0122
     28 C         142.0116  137.8241  161.5289 C.ar    1  UNL1        0.0120
     29 C         140.7146  138.3397  162.0782 C.ar    1  UNL1        0.0553
     30 CL        139.4206  137.9758  161.4126 Cl      1  UNL1       -0.0825
@<TRIPOS>BOND
     1    10     9    1
     2    10    11    1
     3    10     2    1
     4     2     3    2
     5     2     4   am
     6     4     5    1
     7     5     6    1
     8     6     7    1
     9     7     1    1
    10     1    22    1
    11    22    23    1
    12    23    24   ar
    13    24    25   ar
    14    25    26    1
    15    25    27   ar
    16    27    28   ar
    17    28    29   ar
    18    29    30    1
    19     1    13    1
    20    13    14   ar
    21    14    15   ar
    22    15    16   ar
    23    16    20    1
    24    20    21    3
    25    16    17   ar
    26    17    18    1
    27    17    19   ar
    28     7     8    1
    29     8     4    1
    30    29    23   ar
    31    19    13   ar
    32    11    12    1
@<TRIPOS>MOLECULE
*****
 30 32 0 0 0
SMALL
GASTEIGER

@<TRIPOS>ATOM
      1 N         142.2066  139.9140  165.3687 N.pl3   1  UNL1       -0.3034
      2 C         138.0830  139.1871  162.1520 C.2     1  UNL1        0.2526
      3 O         137.3690  138.0425  161.4961 O.2     1  UNL1       -0.2723
      4 N         139.2694  138.9258  163.0317 N.am    1  UNL1       -0.2758
      5 C         139.8540  137.5808  163.3471 C.3     1  UNL1        0.0953
      6 C         141.0255  137.7873  164.2610 C.3     1  UNL1        0.0430
      7 C         141.1648  139.2599  164.5103 C.3     1  UNL1        0.0946
      8 C         140.0795  139.9635  163.7507 C.3     1  UNL1        0.1131
      9 C         138.1123  141.3743  160.7502 C.3     1  UNL1        0.0417
     10 C         137.6104  140.5930  161.9280 C.3     1  UNL1        0.1869
     11 O         136.6358  141.2174  162.8820 O.3     1  UNL1       -0.3758
     12 H         136.4154  140.5821  163.5811 H       1  UNL1        0.2110
     13 C         141.8543  140.3835  166.7491 C.ar    1  UNL1        0.0490
     14 C         140.5249  140.0278  167.3458 C.ar    1  UNL1        0.0153
     15 C         140.1725  140.4973  168.7262 C.ar    1  UNL1        0.0124
     16 C         141.1497  141.3225  169.5099 C.ar    1  UNL1        0.0791
     17 C         142.4792  141.6782  168.9133 C.ar    1  UNL1        0.0685
     18 CL        143.4563  142.5033  169.6970 Cl      1  UNL1       -0.0815
     19 C         142.8315  141.2087  167.5329 C.ar    1  UNL1        0.0266
     20 C         140.7974  141.7920  170.8903 C.1     1  UNL1        0.1013
     21 N         140.4451  142.2614  172.2707 N.1     1  UNL1       -0.1908
     22 C         143.6006  140.0986  164.8468 C.3     1  UNL1        0.1186
     23 C         143.8771  141.1320  163.7952 C.ar    1  UNL1        0.0090
     24 C         143.7990  142.5902  164.1378 C.ar    1  UNL1        0.0096
     25 C         144.0754  143.6236  163.0863 C.ar    1  UNL1        0.0575
     26 CL        143.9973  145.0819  163.4290 Cl      1  UNL1       -0.0823
     27 C         144.4299  143.1987  161.6921 C.ar    1  UNL1        0.0122
     28 C         144.5080  141.7404  161.3494 C.ar    1  UNL1        0.0120
     29 C         144.2315  140.7071  162.4010 C.ar    1  UNL1        0.0553
     30 CL        144.3096  139.2488  162.0583 Cl      1  UNL1       -0.0825
@<TRIPOS>BOND
     1    10     9    1
     2    10    11    1
     3    10     2    1
     4     2     3    2
     5     2     4   am
     6     4     5    1
     7     5     6    1
     8     6     7    1
     9     7     1    1
    10     1    22    1
    11    22    23    1
    12    23    24   ar
    13    24    25   ar
    14    25    26    1
    15    25    27   ar
    16    27    28   ar
    17    28    29   ar
    18    29    30    1
    19     1    13    1
    20    13    14   ar
    21    14    15   ar
    22    15    16   ar
    23    16    20    1
    24    20    21    3
    25    16    17   ar
    26    17    18    1
    27    17    19   ar
    28     7     8    1
    29     8     4    1
    30    29    23   ar
    31    19    13   ar
    32    11    12    1
@<TRIPOS>MOLECULE
*****
 30 32 0 0 0
SMALL
GASTEIGER

@<TRIPOS>ATOM
      1 N         139.5733  140.3141  166.0812 N.pl3   1  UNL1       -0.3034
      2 C         141.3125  141.9629  170.7862 C.2     1  UNL1        0.2526
      3 O         140.9448  141.7977  172.2310 O.2     1  UNL1       -0.2723
      4 N         140.5032  141.2804  169.7236 N.am    1  UNL1       -0.2758
      5 C         139.3060  140.4061  169.9523 C.3     1  UNL1        0.0953
      6 C         138.8119  139.9377  168.6157 C.3     1  UNL1        0.0430
      7 C         139.7038  140.5226  167.5609 C.3     1  UNL1        0.0946
      8 C         140.7491  141.3524  168.2456 C.3     1  UNL1        0.1131
      9 C         143.6608  142.1938  169.6989 C.3     1  UNL1        0.0417
     10 C         142.4895  142.8107  170.4041 C.3     1  UNL1        0.1869
     11 O         142.4951  144.2754  170.7273 O.3     1  UNL1       -0.3758
     12 H         141.6697  144.5099  171.1796 H       1  UNL1        0.2110
     13 C         139.5108  141.4962  165.1599 C.ar    1  UNL1        0.0490
     14 C         138.1894  141.9578  164.6207 C.ar    1  UNL1        0.0153
     15 C         138.1268  143.1399  163.6994 C.ar    1  UNL1        0.0124
     16 C         139.3857  143.8605  163.3174 C.ar    1  UNL1        0.0791
     17 C         140.7072  143.3989  163.8567 C.ar    1  UNL1        0.0685
     18 CL        141.9661  144.1195  163.4747 Cl      1  UNL1       -0.0815
     19 C         140.7697  142.2168  164.7779 C.ar    1  UNL1        0.0266
     20 C         139.3232  145.0426  162.3962 C.1     1  UNL1        0.1013
     21 N         139.2607  146.2247  161.4749 N.1     1  UNL1       -0.1908
     22 C         139.5053  138.9237  165.5227 C.3     1  UNL1        0.1186
     23 C         140.1954  138.5996  164.2310 C.ar    1  UNL1        0.0090
     24 C         139.4108  138.5487  162.9536 C.ar    1  UNL1        0.0096
     25 C         140.1009  138.2246  161.6618 C.ar    1  UNL1        0.0575
     26 CL        139.3162  138.1737  160.3845 Cl      1  UNL1       -0.0823
     27 C         141.5758  137.9515  161.6474 C.ar    1  UNL1        0.0122
     28 C         142.3605  138.0024  162.9248 C.ar    1  UNL1        0.0120
     29 C         141.6703  138.3265  164.2166 C.ar    1  UNL1        0.0553
     30 CL        142.4550  138.3774  165.4939 Cl      1  UNL1       -0.0825
@<TRIPOS>BOND
     1    10     9    1
     2    10    11    1
     3    10     2    1
     4     2     3    2
     5     2     4   am
     6     4     5    1
     7     5     6    1
     8     6     7    1
     9     7     1    1
    10     1    22    1
    11    22    23    1
    12    23    24   ar
    13    24    25   ar
    14    25    26    1
    15    25    27   ar
    16    27    28   ar
    17    28    29   ar
    18    29    30    1
    19     1    13    1
    20    13    14   ar
    21    14    15   ar
    22    15    16   ar
    23    16    20    1
    24    20    21    3
    25    16    17   ar
    26    17    18    1
    27    17    19   ar
    28     7     8    1
    29     8     4    1
    30    29    23   ar
    31    19    13   ar
    32    11    12    1
@<TRIPOS>MOLECULE
*****
 30 32 0 0 0
SMALL
GASTEIGER

@<TRIPOS>ATOM
      1 N         142.4008  139.8838  165.2125 N.pl3   1  UNL1       -0.3034
      2 C         138.1372  139.2559  162.1615 C.2     1  UNL1        0.2526
      3 O         137.3994  138.1331  161.4944 O.2     1  UNL1       -0.2723
      4 N         139.3640  138.9682  162.9752 N.am    1  UNL1       -0.2758
      5 C         139.9689  137.6158  163.2104 C.3     1  UNL1        0.0953
      6 C         141.1801  137.7942  164.0772 C.3     1  UNL1        0.0430
      7 C         141.3237  139.2568  164.3775 C.3     1  UNL1        0.0946
      8 C         140.2014  139.9824  163.6965 C.3     1  UNL1        0.1131
      9 C         138.1691  141.5290  160.9038 C.3     1  UNL1        0.0417
     10 C         137.6482  140.6663  162.0147 C.3     1  UNL1        0.1869
     11 O         136.6382  141.2140  162.9791 O.3     1  UNL1       -0.3758
     12 H         136.4093  140.5319  163.6297 H       1  UNL1        0.2110
     13 C         142.0984  140.3360  166.6103 C.ar    1  UNL1        0.0490
     14 C         142.5548  139.5148  167.7796 C.ar    1  UNL1        0.0153
     15 C         142.2524  139.9670  169.1774 C.ar    1  UNL1        0.0124
     16 C         141.4937  141.2406  169.4060 C.ar    1  UNL1        0.0791
     17 C         141.0372  142.0620  168.2368 C.ar    1  UNL1        0.0685
     18 CL        140.2785  143.3355  168.4654 Cl      1  UNL1       -0.0815
     19 C         141.3396  141.6097  166.8389 C.ar    1  UNL1        0.0266
     20 C         141.1913  141.6929  170.8039 C.1     1  UNL1        0.1013
     21 N         140.8889  142.1452  172.2018 N.1     1  UNL1       -0.1908
     22 C         143.7801  140.0584  164.6495 C.3     1  UNL1        0.1186
     23 C         144.0040  140.9764  163.4846 C.ar    1  UNL1        0.0090
     24 C         143.8921  140.4518  162.0839 C.ar    1  UNL1        0.0096
     25 C         144.1161  141.3698  160.9190 C.ar    1  UNL1        0.0575
     26 CL        144.0041  140.8451  159.5181 Cl      1  UNL1       -0.0823
     27 C         144.4520  142.8125  161.1548 C.ar    1  UNL1        0.0122
     28 C         144.5639  143.3373  162.5556 C.ar    1  UNL1        0.0120
     29 C         144.3399  142.4192  163.7205 C.ar    1  UNL1        0.0553
     30 CL        144.4519  142.9439  165.1213 Cl      1  UNL1       -0.0825
@<TRIPOS>BOND
     1    10     9    1
     2    10    11    1
     3    10     2    1
     4     2     3    2
     5     2     4   am
     6     4     5    1
     7     5     6    1
     8     6     7    1
     9     7     1    1
    10     1    22    1
    11    22    23    1
    12    23    24   ar
    13    24    25   ar
    14    25    26    1
    15    25    27   ar
    16    27    28   ar
    17    28    29   ar
    18    29    30    1
    19     1    13    1
    20    13    14   ar
    21    14    15   ar
    22    15    16   ar
    23    16    20    1
    24    20    21    3
    25    16    17   ar
    26    17    18    1
    27    17    19   ar
    28     7     8    1
    29     8     4    1
    30    29    23   ar
    31    19    13   ar
    32    11    12    1
@<TRIPOS>MOLECULE
*****
 30 32 0 0 0
SMALL
GASTEIGER

@<TRIPOS>ATOM
      1 N         142.7736  142.2112  165.0625 N.pl3   1  UNL1       -0.3034
      2 C         139.8053  144.4464  161.3110 C.2     1  UNL1        0.2526
      3 O         139.6924  145.7743  160.6226 O.2     1  UNL1       -0.2723
      4 N         140.8445  144.2379  162.3724 N.am    1  UNL1       -0.2758
      5 C         141.8352  145.2584  162.8489 C.3     1  UNL1        0.0953
      6 C         142.6785  144.6234  163.9147 C.3     1  UNL1        0.0430
      7 C         142.2088  143.2104  164.0967 C.3     1  UNL1        0.0946
      8 C         141.0754  142.9722  163.1435 C.3     1  UNL1        0.1131
      9 C         139.2644  142.3642  159.8544 C.3     1  UNL1        0.0417
     10 C         138.8790  143.3271  160.9379 C.3     1  UNL1        0.1869
     11 O         137.5673  143.1708  161.6485 O.3     1  UNL1       -0.3758
     12 H         137.4750  143.8701  162.3144 H       1  UNL1        0.2110
     13 C         142.3117  142.2035  166.4896 C.ar    1  UNL1        0.0490
     14 C         140.8547  142.0385  166.8054 C.ar    1  UNL1        0.0153
     15 C         140.3928  142.0309  168.2325 C.ar    1  UNL1        0.0124
     16 C         141.3879  142.1882  169.3437 C.ar    1  UNL1        0.0791
     17 C         142.8450  142.3532  169.0279 C.ar    1  UNL1        0.0685
     18 CL        143.8402  142.5105  170.1392 Cl      1  UNL1       -0.0815
     19 C         143.3069  142.3609  167.6008 C.ar    1  UNL1        0.0266
     20 C         140.9260  142.1806  170.7708 C.1     1  UNL1        0.1013
     21 N         140.4641  142.1729  172.1979 N.1     1  UNL1       -0.1908
     22 C         143.8002  141.2196  164.6011 C.3     1  UNL1        0.1186
     23 C         143.4147  140.1315  163.6433 C.ar    1  UNL1        0.0090
     24 C         142.4672  139.0523  164.0761 C.ar    1  UNL1        0.0096
     25 C         142.0817  137.9642  163.1183 C.ar    1  UNL1        0.0575
     26 CL        141.1342  136.8849  163.5513 Cl      1  UNL1       -0.0823
     27 C         142.6436  137.9554  161.7276 C.ar    1  UNL1        0.0122
     28 C         143.5911  139.0347  161.2947 C.ar    1  UNL1        0.0120
     29 C         143.9766  140.1228  162.2525 C.ar    1  UNL1        0.0553
     30 CL        144.9241  141.2021  161.8196 Cl      1  UNL1       -0.0825
@<TRIPOS>BOND
     1    10     9    1
     2    10    11    1
     3    10     2    1
     4     2     3    2
     5     2     4   am
     6     4     5    1
     7     5     6    1
     8     6     7    1
     9     7     1    1
    10     1    22    1
    11    22    23    1
    12    23    24   ar
    13    24    25   ar
    14    25    26    1
    15    25    27   ar
    16    27    28   ar
    17    28    29   ar
    18    29    30    1
    19     1    13    1
    20    13    14   ar
    21    14    15   ar
    22    15    16   ar
    23    16    20    1
    24    20    21    3
    25    16    17   ar
    26    17    18    1
    27    17    19   ar
    28     7     8    1
    29     8     4    1
    30    29    23   ar
    31    19    13   ar
    32    11    12    1
@<TRIPOS>MOLECULE
*****
 30 32 0 0 0
SMALL
GASTEIGER

@<TRIPOS>ATOM
      1 N         140.7692  139.2422  164.7435 N.pl3   1  UNL1       -0.3034
      2 C         139.0248  140.1986  169.6346 C.2     1  UNL1        0.2526
      3 O         137.7917  139.9404  170.4487 O.2     1  UNL1       -0.2723
      4 N         139.0967  139.7277  168.2123 N.am    1  UNL1       -0.2758
      5 C         138.0205  138.9898  167.4724 C.3     1  UNL1        0.0953
      6 C         138.5161  138.7181  166.0828 C.3     1  UNL1        0.0430
      7 C         139.8985  139.2882  165.9641 C.3     1  UNL1        0.0946
      8 C         140.2573  139.9121  167.2801 C.3     1  UNL1        0.1131
      9 C         140.3280  142.4080  170.0472 C.3     1  UNL1        0.0417
     10 C         140.1860  140.9277  170.2429 C.3     1  UNL1        0.1869
     11 O         141.2052  140.1763  171.0471 O.3     1  UNL1       -0.3758
     12 H         140.9661  139.2366  171.0752 H       1  UNL1        0.2110
     13 C         140.1657  139.4367  163.3841 C.ar    1  UNL1        0.0490
     14 C         140.1367  138.2993  162.4066 C.ar    1  UNL1        0.0153
     15 C         139.5333  138.4938  161.0472 C.ar    1  UNL1        0.0124
     16 C         138.9589  139.8257  160.6652 C.ar    1  UNL1        0.0791
     17 C         138.9879  140.9632  161.6426 C.ar    1  UNL1        0.0685
     18 CL        138.4134  142.2951  161.2606 Cl      1  UNL1       -0.0815
     19 C         139.5913  140.7687  163.0021 C.ar    1  UNL1        0.0266
     20 C         138.3554  140.0202  159.3058 C.1     1  UNL1        0.1013
     21 N         137.7520  140.2147  157.9463 N.1     1  UNL1       -0.1908
     22 C         142.2432  139.0019  164.8823 C.3     1  UNL1        0.1186
     23 C         143.2197  140.0413  164.4176 C.ar    1  UNL1        0.0090
     24 C         143.4154  141.2964  165.2154 C.ar    1  UNL1        0.0096
     25 C         144.3919  142.3359  164.7507 C.ar    1  UNL1        0.0575
     26 CL        144.5876  143.5910  165.5486 Cl      1  UNL1       -0.0823
     27 C         145.1727  142.1203  163.4882 C.ar    1  UNL1        0.0122
     28 C         144.9770  140.8652  162.6904 C.ar    1  UNL1        0.0120
     29 C         144.0005  139.8257  163.1551 C.ar    1  UNL1        0.0553
     30 CL        143.8048  138.5706  162.3573 Cl      1  UNL1       -0.0825
@<TRIPOS>BOND
     1    10     9    1
     2    10    11    1
     3    10     2    1
     4     2     3    2
     5     2     4   am
     6     4     5    1
     7     5     6    1
     8     6     7    1
     9     7     1    1
    10     1    22    1
    11    22    23    1
    12    23    24   ar
    13    24    25   ar
    14    25    26    1
    15    25    27   ar
    16    27    28   ar
    17    28    29   ar
    18    29    30    1
    19     1    13    1
    20    13    14   ar
    21    14    15   ar
    22    15    16   ar
    23    16    20    1
    24    20    21    3
    25    16    17   ar
    26    17    18    1
    27    17    19   ar
    28     7     8    1
    29     8     4    1
    30    29    23   ar
    31    19    13   ar
    32    11    12    1
@<TRIPOS>MOLECULE
*****
 30 32 0 0 0
SMALL
GASTEIGER

@<TRIPOS>ATOM
      1 N         141.3618  140.2298  165.6320 N.pl3   1  UNL1       -0.3034
      2 C         141.0853  141.8632  170.6456 C.2     1  UNL1        0.2526
      3 O         141.6982  141.5103  171.9684 O.2     1  UNL1       -0.2723
      4 N         141.4700  141.0997  169.4132 N.am    1  UNL1       -0.2758
      5 C         142.4485  139.9645  169.3488 C.3     1  UNL1        0.0953
      6 C         142.5270  139.5005  167.9245 C.3     1  UNL1        0.0430
      7 C         141.5971  140.3489  167.1087 C.3     1  UNL1        0.0946
      8 C         140.9439  141.3372  168.0287 C.3     1  UNL1        0.1131
      9 C         140.4623  144.2679  169.8846 C.3     1  UNL1        0.0417
     10 C         140.0877  142.9797  170.5553 C.3     1  UNL1        0.1869
     11 O         138.7153  142.8078  171.1360 O.3     1  UNL1       -0.3758
     12 H         138.6389  141.9243  171.5290 H       1  UNL1        0.2110
     13 C         140.9714  141.4389  164.8348 C.ar    1  UNL1        0.0490
     14 C         142.0110  142.1957  164.0625 C.ar    1  UNL1        0.0153
     15 C         141.6206  143.4049  163.2653 C.ar    1  UNL1        0.0124
     16 C         140.1907  143.8573  163.2405 C.ar    1  UNL1        0.0791
     17 C         139.1511  143.1006  164.0129 C.ar    1  UNL1        0.0685
     18 CL        137.7212  143.5530  163.9882 Cl      1  UNL1       -0.0815
     19 C         139.5415  141.8914  164.8101 C.ar    1  UNL1        0.0266
     20 C         139.8004  145.0665  162.4433 C.1     1  UNL1        0.1013
     21 N         139.4100  146.2757  161.6462 N.1     1  UNL1       -0.1908
     22 C         141.5169  138.9015  164.9526 C.3     1  UNL1        0.1186
     23 C         140.7344  138.5993  163.7090 C.ar    1  UNL1        0.0090
     24 C         141.3836  138.7328  162.3634 C.ar    1  UNL1        0.0096
     25 C         140.6012  138.4306  161.1199 C.ar    1  UNL1        0.0575
     26 CL        141.2505  138.5641  159.7742 Cl      1  UNL1       -0.0823
     27 C         139.1695  137.9949  161.2219 C.ar    1  UNL1        0.0122
     28 C         138.5202  137.8614  162.5675 C.ar    1  UNL1        0.0120
     29 C         139.3027  138.1636  163.8111 C.ar    1  UNL1        0.0553
     30 CL        138.6534  138.0301  165.1567 Cl      1  UNL1       -0.0825
@<TRIPOS>BOND
     1    10     9    1
     2    10    11    1
     3    10     2    1
     4     2     3    2
     5     2     4   am
     6     4     5    1
     7     5     6    1
     8     6     7    1
     9     7     1    1
    10     1    22    1
    11    22    23    1
    12    23    24   ar
    13    24    25   ar
    14    25    26    1
    15    25    27   ar
    16    27    28   ar
    17    28    29   ar
    18    29    30    1
    19     1    13    1
    20    13    14   ar
    21    14    15   ar
    22    15    16   ar
    23    16    20    1
    24    20    21    3
    25    16    17   ar
    26    17    18    1
    27    17    19   ar
    28     7     8    1
    29     8     4    1
    30    29    23   ar
    31    19    13   ar
    32    11    12    1
@<TRIPOS>MOLECULE
*****
 30 32 0 0 0
SMALL
GASTEIGER

@<TRIPOS>ATOM
      1 N         140.2461  142.0355  165.3210 N.pl3   1  UNL1       -0.3034
      2 C         139.9748  140.3605  170.3212 C.2     1  UNL1        0.2526
      3 O         139.2590  139.3002  171.1043 O.2     1  UNL1       -0.2723
      4 N         139.7440  140.4867  168.8445 N.am    1  UNL1       -0.2758
      5 C         138.8317  139.6292  168.0183 C.3     1  UNL1        0.0953
      6 C         138.9088  140.1050  166.5977 C.3     1  UNL1        0.0430
      7 C         139.8687  141.2565  166.5462 C.3     1  UNL1        0.0946
      8 C         140.3848  141.4924  167.9347 C.3     1  UNL1        0.1131
      9 C         142.3978  141.1807  170.7756 C.3     1  UNL1        0.0417
     10 C         140.9215  141.2947  171.0149 C.3     1  UNL1        0.1869
     11 O         140.3916  142.3429  171.9479 O.3     1  UNL1       -0.3758
     12 H         139.4245  142.2801  171.9891 H       1  UNL1        0.2110
     13 C         139.6915  141.6445  163.9833 C.ar    1  UNL1        0.0490
     14 C         138.5284  142.3948  163.4053 C.ar    1  UNL1        0.0153
     15 C         137.9737  142.0039  162.0676 C.ar    1  UNL1        0.0124
     16 C         138.5821  140.8625  161.3079 C.ar    1  UNL1        0.0791
     17 C         139.7453  140.1121  161.8859 C.ar    1  UNL1        0.0685
     18 CL        140.3537  138.9708  161.1262 Cl      1  UNL1       -0.0815
     19 C         140.2999  140.5031  163.2236 C.ar    1  UNL1        0.0266
     20 C         138.0274  140.4716  159.9702 C.1     1  UNL1        0.1013
     21 N         137.4728  140.0806  158.6325 N.1     1  UNL1       -0.1908
     22 C         141.1782  143.2053  165.4336 C.3     1  UNL1        0.1186
     23 C         142.3301  143.3407  164.4825 C.ar    1  UNL1        0.0090
     24 C         143.5174  142.4326  164.6082 C.ar    1  UNL1        0.0096
     25 C         144.6693  142.5681  163.6571 C.ar    1  UNL1        0.0575
     26 CL        145.8566  141.6599  163.7829 Cl      1  UNL1       -0.0823
     27 C         144.6340  143.6116  162.5802 C.ar    1  UNL1        0.0122
     28 C         143.4467  144.5197  162.4544 C.ar    1  UNL1        0.0120
     29 C         142.2948  144.3843  163.4055 C.ar    1  UNL1        0.0553
     30 CL        141.1076  145.2924  163.2798 Cl      1  UNL1       -0.0825
@<TRIPOS>BOND
     1    10     9    1
     2    10    11    1
     3    10     2    1
     4     2     3    2
     5     2     4   am
     6     4     5    1
     7     5     6    1
     8     6     7    1
     9     7     1    1
    10     1    22    1
    11    22    23    1
    12    23    24   ar
    13    24    25   ar
    14    25    26    1
    15    25    27   ar
    16    27    28   ar
    17    28    29   ar
    18    29    30    1
    19     1    13    1
    20    13    14   ar
    21    14    15   ar
    22    15    16   ar
    23    16    20    1
    24    20    21    3
    25    16    17   ar
    26    17    18    1
    27    17    19   ar
    28     7     8    1
    29     8     4    1
    30    29    23   ar
    31    19    13   ar
    32    11    12    1
@<TRIPOS>MOLECULE
*****
 30 32 0 0 0
SMALL
GASTEIGER

@<TRIPOS>ATOM
      1 N         142.1763  142.5807  164.8959 N.pl3   1  UNL1       -0.3034
      2 C         143.2828  138.3034  162.0044 C.2     1  UNL1        0.2526
      3 O         144.4978  137.5707  161.5175 O.2     1  UNL1       -0.2723
      4 N         143.4371  139.5376  162.8426 N.am    1  UNL1       -0.2758
      5 C         144.7349  140.1553  163.2721 C.3     1  UNL1        0.0953
      6 C         144.4205  141.3704  164.0935 C.3     1  UNL1        0.0430
      7 C         142.9285  141.5037  164.1717 C.3     1  UNL1        0.0946
      8 C         142.3207  140.3710  163.3986 C.3     1  UNL1        0.1131
      9 C         141.2321  138.2900  160.4092 C.3     1  UNL1        0.0417
     10 C         141.9136  137.8016  161.6530 C.3     1  UNL1        0.1869
     11 O         141.2259  136.8114  162.5454 O.3     1  UNL1       -0.3758
     12 H         141.7995  136.6026  163.2993 H       1  UNL1        0.2110
     13 C         141.9214  142.4568  166.3689 C.ar    1  UNL1        0.0490
     14 C         140.5167  142.3274  166.8787 C.ar    1  UNL1        0.0153
     15 C         140.2619  142.2035  168.3517 C.ar    1  UNL1        0.0124
     16 C         141.4118  142.2090  169.3149 C.ar    1  UNL1        0.0791
     17 C         142.8166  142.3385  168.8050 C.ar    1  UNL1        0.0685
     18 CL        143.9664  142.3440  169.7682 Cl      1  UNL1       -0.0815
     19 C         143.0714  142.4623  167.3321 C.ar    1  UNL1        0.0266
     20 C         141.1569  142.0852  170.7879 C.1     1  UNL1        0.1013
     21 N         140.9021  141.9613  172.2609 N.1     1  UNL1       -0.1908
     22 C         141.6790  143.7815  164.1471 C.3     1  UNL1        0.1186
     23 C         140.4251  143.6889  163.3290 C.ar    1  UNL1        0.0090
     24 C         140.4578  143.0400  161.9771 C.ar    1  UNL1        0.0096
     25 C         139.2039  142.9475  161.1590 C.ar    1  UNL1        0.0575
     26 CL        139.2367  142.2986  159.8070 Cl      1  UNL1       -0.0823
     27 C         137.9173  143.5038  161.6929 C.ar    1  UNL1        0.0122
     28 C         137.8845  144.1527  163.0449 C.ar    1  UNL1        0.0120
     29 C         139.1384  144.2453  163.8630 C.ar    1  UNL1        0.0553
     30 CL        139.1057  144.8941  165.2150 Cl      1  UNL1       -0.0825
@<TRIPOS>BOND
     1    10     9    1
     2    10    11    1
     3    10     2    1
     4     2     3    2
     5     2     4   am
     6     4     5    1
     7     5     6    1
     8     6     7    1
     9     7     1    1
    10     1    22    1
    11    22    23    1
    12    23    24   ar
    13    24    25   ar
    14    25    26    1
    15    25    27   ar
    16    27    28   ar
    17    28    29   ar
    18    29    30    1
    19     1    13    1
    20    13    14   ar
    21    14    15   ar
    22    15    16   ar
    23    16    20    1
    24    20    21    3
    25    16    17   ar
    26    17    18    1
    27    17    19   ar
    28     7     8    1
    29     8     4    1
    30    29    23   ar
    31    19    13   ar
    32    11    12    1
