@<TRIPOS>MOLECULE
*****
 37 41 0 0 0
SMALL
GASTEIGER

@<TRIPOS>ATOM
      1 C         138.7863  139.9986  157.0009 C.3     1  UNL1        0.1021
      2 C         138.1467  140.5834  155.7766 C.3     1  UNL1        0.0643
      3 C         137.4754  141.9229  155.8483 C.3     1  UNL1        0.1368
      4 C         136.7245  143.1480  155.4180 C.3     1  UNL1        0.0437
      5 C         137.2463  141.5938  154.4029 C.3     1  UNL1        0.0437
      6 O         137.4436  142.6775  157.1442 O.3     1  UNL1       -0.4676
      7 C         138.0832  142.0927  158.3685 C.ar    1  UNL1        0.2219
      8 N         138.0515  142.8474  159.6645 N.ar    1  UNL1       -0.2119
      9 C         138.6911  142.2626  160.8887 C.ar    1  UNL1        0.0851
     10 C         139.3624  140.9231  160.8171 C.ar    1  UNL1        0.0177
     11 C         139.3942  140.1684  159.5212 C.ar    1  UNL1        0.0034
     12 C         138.7545  140.7533  158.2968 C.ar    1  UNL1        0.0488
     13 C         138.6593  143.0172  162.1847 C.ar    1  UNL1        0.0284
     14 C         137.6016  142.7131  163.2040 C.ar    1  UNL1        0.0032
     15 C         137.5699  143.4678  164.4999 C.ar    1  UNL1        0.0115
     16 C         138.5959  144.5266  164.7766 C.ar    1  UNL1        0.0585
     17 CL        138.5641  145.2812  166.0725 Cl      1  UNL1       -0.0822
     18 C         139.6535  144.8306  163.7573 C.ar    1  UNL1        0.0228
     19 C         139.6852  144.0760  162.4614 C.ar    1  UNL1        0.0599
     20 CL        140.7428  144.3801  161.4421 Cl      1  UNL1       -0.0822
     21 C         140.0020  140.3383  162.0414 C.ar    1  UNL1        0.0015
     22 C         139.2369  139.3752  162.9000 C.ar    1  UNL1        0.0009
     23 C         139.8766  138.7904  164.1243 C.ar    1  UNL1        0.0114
     24 C         141.2812  139.1687  164.4900 C.ar    1  UNL1        0.0577
     25 CL        141.9208  138.5839  165.7143 Cl      1  UNL1       -0.0822
     26 C         142.0463  140.1318  163.6315 C.ar    1  UNL1        0.0114
     27 C         141.4067  140.7166  162.4072 C.ar    1  UNL1        0.0009
     28 C         140.9178  138.5688  156.5979 C.2     1  UNL1        0.2334
     29 O         141.7065  139.8180  156.3381 O.2     1  UNL1       -0.2743
     30 N         139.4576  138.6591  156.9293 N.am    1  UNL1       -0.3013
     31 H         138.9399  137.8393  157.0997 H       1  UNL1        0.1497
     32 C         140.2732  136.2134  154.4331 C.3     1  UNL1        0.0501
     33 C         141.2928  136.1467  155.5312 C.2     1  UNL1        0.0727
     34 N         142.1952  134.9857  155.8270 N.2     1  UNL1       -0.1561
     35 N         143.0493  135.3507  157.0050 N.2     1  UNL1       -0.1509
     36 C         142.6747  136.7374  157.4371 C.2     1  UNL1        0.1102
     37 C         141.5891  137.2294  156.5262 C.3     1  UNL1        0.1570
@<TRIPOS>BOND
     1    32    33    1
     2    33    34    2
     3    34    35    1
     4    35    36    2
     5    36    37    1
     6    37    28    1
     7    28    29    2
     8    28    30   am
     9     1    30    1
    10     1     2    1
    11     2     3    1
    12     3     4    1
    13     3     5    1
    14     3     6    1
    15     6     7    1
    16     7     8   ar
    17     8     9   ar
    18     9    13    1
    19    13    14   ar
    20    14    15   ar
    21    15    16   ar
    22    16    17    1
    23    16    18   ar
    24    18    19   ar
    25    19    20    1
    26     9    10   ar
    27    10    21    1
    28    21    22   ar
    29    22    23   ar
    30    23    24   ar
    31    24    25    1
    32    24    26   ar
    33    26    27   ar
    34    10    11   ar
    35    11    12   ar
    36    37    33    1
    37    12     1    1
    38    12     7   ar
    39    19    13   ar
    40    27    21   ar
    41    30    31    1
@<TRIPOS>MOLECULE
*****
 37 41 0 0 0
SMALL
GASTEIGER

@<TRIPOS>ATOM
      1 C         143.7372  140.0038  155.9990 C.3     1  UNL1        0.1021
      2 C         144.5005  140.6512  154.8818 C.3     1  UNL1        0.0643
      3 C         145.3875  141.8278  155.1627 C.3     1  UNL1        0.1368
      4 C         146.3473  142.9567  154.9300 C.3     1  UNL1        0.0437
      5 C         145.5973  141.6907  153.6838 C.3     1  UNL1        0.0437
      6 O         145.5111  142.3570  156.5608 O.3     1  UNL1       -0.4676
      7 C         144.7477  141.7096  157.6780 C.ar    1  UNL1        0.2219
      8 N         144.8713  142.2388  159.0761 N.ar    1  UNL1       -0.2119
      9 C         144.1080  141.5914  160.1933 C.ar    1  UNL1        0.0851
     10 C         143.2210  140.4148  159.9124 C.ar    1  UNL1        0.0177
     11 C         143.0974  139.8856  158.5143 C.ar    1  UNL1        0.0034
     12 C         143.8608  140.5330  157.3971 C.ar    1  UNL1        0.0488
     13 C         144.2316  142.1206  161.5914 C.ar    1  UNL1        0.0284
     14 C         145.2342  141.5230  162.5336 C.ar    1  UNL1        0.0032
     15 C         145.3578  142.0522  163.9317 C.ar    1  UNL1        0.0115
     16 C         144.4788  143.1790  164.3876 C.ar    1  UNL1        0.0585
     17 CL        144.6024  143.7082  165.7857 Cl      1  UNL1       -0.0822
     18 C         143.4762  143.7765  163.4454 C.ar    1  UNL1        0.0228
     19 C         143.3526  143.2473  162.0473 C.ar    1  UNL1        0.0599
     20 CL        142.3501  143.8448  161.1051 Cl      1  UNL1       -0.0822
     21 C         142.4576  139.7674  161.0296 C.ar    1  UNL1        0.0015
     22 C         141.0922  140.2697  161.3947 C.ar    1  UNL1        0.0009
     23 C         140.3289  139.6222  162.5119 C.ar    1  UNL1        0.0114
     24 C         140.9310  138.4726  163.2640 C.ar    1  UNL1        0.0577
     25 CL        140.1676  137.8252  164.3812 Cl      1  UNL1       -0.0822
     26 C         142.2964  137.9702  162.8989 C.ar    1  UNL1        0.0114
     27 C         143.0597  138.6176  161.7817 C.ar    1  UNL1        0.0009
     28 C         143.4502  137.4679  155.5123 C.2     1  UNL1        0.2334
     29 O         144.9372  137.2852  155.5875 O.2     1  UNL1       -0.2743
     30 N         142.8502  138.8272  155.7181 N.am    1  UNL1       -0.3013
     31 H         141.8743  138.9471  155.6688 H       1  UNL1        0.1497
     32 C         143.3787  134.6743  157.1975 C.3     1  UNL1        0.0501
     33 C         142.5304  135.0072  156.0061 C.2     1  UNL1        0.0727
     34 N         141.5003  134.1145  155.3801 N.2     1  UNL1       -0.1561
     35 N         140.8965  134.8468  154.2185 N.2     1  UNL1       -0.1509
     36 C         141.5535  136.1921  154.1267 C.2     1  UNL1        0.1102
     37 C         142.5633  136.2913  155.2315 C.3     1  UNL1        0.1570
@<TRIPOS>BOND
     1    32    33    1
     2    33    34    2
     3    34    35    1
     4    35    36    2
     5    36    37    1
     6    37    28    1
     7    28    29    2
     8    28    30   am
     9     1    30    1
    10     1     2    1
    11     2     3    1
    12     3     4    1
    13     3     5    1
    14     3     6    1
    15     6     7    1
    16     7     8   ar
    17     8     9   ar
    18     9    13    1
    19    13    14   ar
    20    14    15   ar
    21    15    16   ar
    22    16    17    1
    23    16    18   ar
    24    18    19   ar
    25    19    20    1
    26     9    10   ar
    27    10    21    1
    28    21    22   ar
    29    22    23   ar
    30    23    24   ar
    31    24    25    1
    32    24    26   ar
    33    26    27   ar
    34    10    11   ar
    35    11    12   ar
    36    37    33    1
    37    12     1    1
    38    12     7   ar
    39    19    13   ar
    40    27    21   ar
    41    30    31    1
@<TRIPOS>MOLECULE
*****
 37 41 0 0 0
SMALL
GASTEIGER

@<TRIPOS>ATOM
      1 C         140.9097  138.4293  156.2621 C.3     1  UNL1        0.1021
      2 C         141.7140  137.5965  155.3084 C.3     1  UNL1        0.0643
      3 C         142.8587  136.7705  155.8156 C.3     1  UNL1        0.1368
      4 C         144.0260  135.8285  155.8155 C.3     1  UNL1        0.0437
      5 C         142.9237  136.4364  154.3547 C.3     1  UNL1        0.0437
      6 O         143.1992  136.7773  157.2765 O.3     1  UNL1       -0.4676
      7 C         142.3949  137.6101  158.2301 C.ar    1  UNL1        0.2219
      8 N         142.7354  137.6170  159.6909 N.ar    1  UNL1       -0.2119
      9 C         141.9311  138.4498  160.6446 C.ar    1  UNL1        0.0851
     10 C         140.7863  139.2758  160.1374 C.ar    1  UNL1        0.0177
     11 C         140.4459  139.2690  158.6766 C.ar    1  UNL1        0.0034
     12 C         141.2502  138.4361  157.7229 C.ar    1  UNL1        0.0488
     13 C         142.2716  138.4566  162.1054 C.ar    1  UNL1        0.0284
     14 C         141.4969  137.5972  163.0601 C.ar    1  UNL1        0.0032
     15 C         141.8374  137.6040  164.5210 C.ar    1  UNL1        0.0115
     16 C         142.9525  138.4703  165.0271 C.ar    1  UNL1        0.0585
     17 CL        143.2930  138.4771  166.4879 Cl      1  UNL1       -0.0822
     18 C         143.7271  139.3297  164.0725 C.ar    1  UNL1        0.0228
     19 C         143.3867  139.3228  162.6116 C.ar    1  UNL1        0.0599
     20 CL        144.1613  140.1822  161.6570 Cl      1  UNL1       -0.0822
     21 C         139.9820  140.1087  161.0911 C.ar    1  UNL1        0.0015
     22 C         138.6840  139.5866  161.6320 C.ar    1  UNL1        0.0009
     23 C         137.8797  140.4195  162.5857 C.ar    1  UNL1        0.0114
     24 C         138.3735  141.7744  162.9985 C.ar    1  UNL1        0.0577
     25 CL        137.5692  142.6072  163.9521 Cl      1  UNL1       -0.0822
     26 C         139.6716  142.2964  162.4576 C.ar    1  UNL1        0.0114
     27 C         140.4758  141.4636  161.5040 C.ar    1  UNL1        0.0009
     28 C         138.4539  138.6020  155.4320 C.2     1  UNL1        0.2334
     29 O         138.2876  137.1226  155.6162 O.2     1  UNL1       -0.2743
     30 N         139.7649  139.2553  155.7549 N.am    1  UNL1       -0.3013
     31 H         139.8741  140.2263  155.6341 H       1  UNL1        0.1497
     32 C         137.0507  141.0998  156.9944 C.3     1  UNL1        0.0501
     33 C         136.6641  140.5761  155.6430 C.2     1  UNL1        0.0727
     34 N         135.5647  141.1086  154.7726 N.2     1  UNL1       -0.1561
     35 N         135.5302  140.2895  153.5163 N.2     1  UNL1       -0.1509
     36 C         136.6083  139.2508  153.6105 C.2     1  UNL1        0.1102
     37 C         137.3091  139.4280  154.9249 C.3     1  UNL1        0.1570
@<TRIPOS>BOND
     1    32    33    1
     2    33    34    2
     3    34    35    1
     4    35    36    2
     5    36    37    1
     6    37    28    1
     7    28    29    2
     8    28    30   am
     9     1    30    1
    10     1     2    1
    11     2     3    1
    12     3     4    1
    13     3     5    1
    14     3     6    1
    15     6     7    1
    16     7     8   ar
    17     8     9   ar
    18     9    13    1
    19    13    14   ar
    20    14    15   ar
    21    15    16   ar
    22    16    17    1
    23    16    18   ar
    24    18    19   ar
    25    19    20    1
    26     9    10   ar
    27    10    21    1
    28    21    22   ar
    29    22    23   ar
    30    23    24   ar
    31    24    25    1
    32    24    26   ar
    33    26    27   ar
    34    10    11   ar
    35    11    12   ar
    36    37    33    1
    37    12     1    1
    38    12     7   ar
    39    19    13   ar
    40    27    21   ar
    41    30    31    1
@<TRIPOS>MOLECULE
*****
 37 41 0 0 0
SMALL
GASTEIGER

@<TRIPOS>ATOM
      1 C         139.5766  140.5659  156.4530 C.3     1  UNL1        0.1021
      2 C         138.6271  140.8957  155.3395 C.3     1  UNL1        0.0643
      3 C         137.5134  141.8739  155.5687 C.3     1  UNL1        0.1368
      4 C         136.3117  142.7302  155.2991 C.3     1  UNL1        0.0437
      5 C         137.2603  141.5229  154.1325 C.3     1  UNL1        0.0437
      6 O         137.3490  142.5223  156.9113 O.3     1  UNL1       -0.4676
      7 C         138.2985  142.1926  158.0247 C.ar    1  UNL1        0.2219
      8 N         138.1342  142.8410  159.3673 N.ar    1  UNL1       -0.2119
      9 C         139.0837  142.5112  160.4807 C.ar    1  UNL1        0.0851
     10 C         140.1975  141.5330  160.2516 C.ar    1  UNL1        0.0177
     11 C         140.3618  140.8845  158.9090 C.ar    1  UNL1        0.0034
     12 C         139.4123  141.2143  157.7955 C.ar    1  UNL1        0.0488
     13 C         138.9194  143.1596  161.8233 C.ar    1  UNL1        0.0284
     14 C         139.6085  144.4590  162.1180 C.ar    1  UNL1        0.0032
     15 C         139.4442  145.1074  163.4606 C.ar    1  UNL1        0.0115
     16 C         138.5907  144.4565  164.5085 C.ar    1  UNL1        0.0585
     17 CL        138.4264  145.1049  165.8511 Cl      1  UNL1       -0.0822
     18 C         137.9016  143.1572  164.2137 C.ar    1  UNL1        0.0228
     19 C         138.0659  142.5088  162.8711 C.ar    1  UNL1        0.0599
     20 CL        137.3768  141.2095  162.5764 Cl      1  UNL1       -0.0822
     21 C         141.1470  141.2032  161.3650 C.ar    1  UNL1        0.0015
     22 C         142.3955  142.0136  161.5507 C.ar    1  UNL1        0.0009
     23 C         143.3450  141.6837  162.6642 C.ar    1  UNL1        0.0114
     24 C         143.0459  140.5436  163.5918 C.ar    1  UNL1        0.0577
     25 CL        143.9954  140.2138  164.7053 Cl      1  UNL1       -0.0822
     26 C         141.7974  139.7332  163.4061 C.ar    1  UNL1        0.0114
     27 C         140.8480  140.0630  162.2927 C.ar    1  UNL1        0.0009
     28 C         140.4082  138.1145  156.2315 C.2     1  UNL1        0.2334
     29 O         139.0121  137.6195  156.4684 O.2     1  UNL1       -0.2743
     30 N         140.6904  139.5877  156.2238 N.am    1  UNL1       -0.3013
     31 H         141.6067  139.9125  156.0683 H       1  UNL1        0.1497
     32 C         142.7869  137.3869  158.3438 C.3     1  UNL1        0.0501
     33 C         142.6153  136.8018  156.9733 C.2     1  UNL1        0.0727
     34 N         143.5070  135.7795  156.3331 N.2     1  UNL1       -0.1561
     35 N         142.9647  135.4822  154.9665 N.2     1  UNL1       -0.1509
     36 C         141.7379  136.3207  154.7621 C.2     1  UNL1        0.1102
     37 C         141.5219  137.1362  156.0024 C.3     1  UNL1        0.1570
@<TRIPOS>BOND
     1    32    33    1
     2    33    34    2
     3    34    35    1
     4    35    36    2
     5    36    37    1
     6    37    28    1
     7    28    29    2
     8    28    30   am
     9     1    30    1
    10     1     2    1
    11     2     3    1
    12     3     4    1
    13     3     5    1
    14     3     6    1
    15     6     7    1
    16     7     8   ar
    17     8     9   ar
    18     9    13    1
    19    13    14   ar
    20    14    15   ar
    21    15    16   ar
    22    16    17    1
    23    16    18   ar
    24    18    19   ar
    25    19    20    1
    26     9    10   ar
    27    10    21    1
    28    21    22   ar
    29    22    23   ar
    30    23    24   ar
    31    24    25    1
    32    24    26   ar
    33    26    27   ar
    34    10    11   ar
    35    11    12   ar
    36    37    33    1
    37    12     1    1
    38    12     7   ar
    39    19    13   ar
    40    27    21   ar
    41    30    31    1
@<TRIPOS>MOLECULE
*****
 37 41 0 0 0
SMALL
GASTEIGER

@<TRIPOS>ATOM
      1 C         141.7896  139.7840  156.9200 C.3     1  UNL1        0.1021
      2 C         141.1583  139.0369  155.7828 C.3     1  UNL1        0.0643
      3 C         139.9829  138.1399  156.0355 C.3     1  UNL1        0.1368
      4 C         138.8611  137.1791  155.7739 C.3     1  UNL1        0.0437
      5 C         140.1373  137.9560  154.5548 C.3     1  UNL1        0.0437
      6 O         139.4388  137.9900  157.4252 O.3     1  UNL1       -0.4676
      7 C         140.0701  138.7372  158.5624 C.ar    1  UNL1        0.2219
      8 N         139.5261  138.5873  159.9522 N.ar    1  UNL1       -0.2119
      9 C         140.1574  139.3344  161.0894 C.ar    1  UNL1        0.0851
     10 C         141.3328  140.2315  160.8368 C.ar    1  UNL1        0.0177
     11 C         141.8769  140.3814  159.4470 C.ar    1  UNL1        0.0034
     12 C         141.2455  139.6342  158.3098 C.ar    1  UNL1        0.0488
     13 C         139.6133  139.1846  162.4792 C.ar    1  UNL1        0.0284
     14 C         138.5477  140.1182  162.9722 C.ar    1  UNL1        0.0032
     15 C         138.0037  139.9683  164.3620 C.ar    1  UNL1        0.0115
     16 C         138.5252  138.8848  165.2588 C.ar    1  UNL1        0.0585
     17 CL        137.9811  138.7350  166.6486 Cl      1  UNL1       -0.0822
     18 C         139.5907  137.9513  164.7658 C.ar    1  UNL1        0.0228
     19 C         140.1347  138.1012  163.3760 C.ar    1  UNL1        0.0599
     20 CL        141.2002  137.1676  162.8829 Cl      1  UNL1       -0.0822
     21 C         141.9641  140.9786  161.9740 C.ar    1  UNL1        0.0015
     22 C         143.0912  140.3582  162.7451 C.ar    1  UNL1        0.0009
     23 C         143.7226  141.1055  163.8823 C.ar    1  UNL1        0.0114
     24 C         143.2267  142.4730  164.2484 C.ar    1  UNL1        0.0577
     25 CL        143.8580  143.2201  165.3855 Cl      1  UNL1       -0.0822
     26 C         142.0996  143.0933  163.4772 C.ar    1  UNL1        0.0114
     27 C         141.4683  142.3462  162.3400 C.ar    1  UNL1        0.0009
     28 C         144.3076  140.0886  156.3570 C.2     1  UNL1        0.2334
     29 O         144.4748  138.5990  156.2993 O.2     1  UNL1       -0.2743
     30 N         142.9650  140.6811  156.6674 N.am    1  UNL1       -0.3013
     31 H         142.8552  141.6587  156.7053 H       1  UNL1        0.1497
     32 C         145.2897  142.5467  158.2656 C.3     1  UNL1        0.0501
     33 C         145.9344  142.1154  156.9817 C.2     1  UNL1        0.0727
     34 N         147.1438  142.7383  156.3497 N.2     1  UNL1       -0.1561
     35 N         147.4398  141.9934  155.0818 N.2     1  UNL1       -0.1509
     36 C         146.4134  140.9101  154.9303 C.2     1  UNL1        0.1102
     37 C         145.4830  140.9855  156.1045 C.3     1  UNL1        0.1570
@<TRIPOS>BOND
     1    32    33    1
     2    33    34    2
     3    34    35    1
     4    35    36    2
     5    36    37    1
     6    37    28    1
     7    28    29    2
     8    28    30   am
     9     1    30    1
    10     1     2    1
    11     2     3    1
    12     3     4    1
    13     3     5    1
    14     3     6    1
    15     6     7    1
    16     7     8   ar
    17     8     9   ar
    18     9    13    1
    19    13    14   ar
    20    14    15   ar
    21    15    16   ar
    22    16    17    1
    23    16    18   ar
    24    18    19   ar
    25    19    20    1
    26     9    10   ar
    27    10    21    1
    28    21    22   ar
    29    22    23   ar
    30    23    24   ar
    31    24    25    1
    32    24    26   ar
    33    26    27   ar
    34    10    11   ar
    35    11    12   ar
    36    37    33    1
    37    12     1    1
    38    12     7   ar
    39    19    13   ar
    40    27    21   ar
    41    30    31    1
@<TRIPOS>MOLECULE
*****
 37 41 0 0 0
SMALL
GASTEIGER

@<TRIPOS>ATOM
      1 C         141.0339  142.2050  156.3490 C.3     1  UNL1        0.1021
      2 C         140.8855  143.1658  155.2067 C.3     1  UNL1        0.0643
      3 C         140.3522  144.5461  155.4522 C.3     1  UNL1        0.1368
      4 C         139.8978  145.9501  155.1833 C.3     1  UNL1        0.0437
      5 C         140.5792  144.6142  153.9711 C.3     1  UNL1        0.0437
      6 O         139.9674  144.9656  156.8400 O.3     1  UNL1       -0.4676
      7 C         140.1158  144.0048  157.9822 C.ar    1  UNL1        0.2219
      8 N         139.7310  144.4244  159.3700 N.ar    1  UNL1       -0.2119
      9 C         139.8795  143.4636  160.5123 C.ar    1  UNL1        0.0851
     10 C         140.4128  142.0832  160.2668 C.ar    1  UNL1        0.0177
     11 C         140.7976  141.6637  158.8790 C.ar    1  UNL1        0.0034
     12 C         140.6491  142.6245  157.7367 C.ar    1  UNL1        0.0488
     13 C         139.4947  143.8831  161.9000 C.ar    1  UNL1        0.0284
     14 C         138.0990  143.6452  162.3956 C.ar    1  UNL1        0.0032
     15 C         137.7142  144.0647  163.7834 C.ar    1  UNL1        0.0115
     16 C         138.7250  144.7222  164.6756 C.ar    1  UNL1        0.0585
     17 CL        138.3402  145.1417  166.0634 Cl      1  UNL1       -0.0822
     18 C         140.1206  144.9601  164.1800 C.ar    1  UNL1        0.0228
     19 C         140.5055  144.5406  162.7922 C.ar    1  UNL1        0.0599
     20 CL        141.9010  144.7785  162.2966 Cl      1  UNL1       -0.0822
     21 C         140.5612  141.1224  161.4091 C.ar    1  UNL1        0.0015
     22 C         139.4463  140.1760  161.7428 C.ar    1  UNL1        0.0009
     23 C         139.5948  139.2152  162.8852 C.ar    1  UNL1        0.0114
     24 C         140.8582  139.2008  163.6937 C.ar    1  UNL1        0.0577
     25 CL        141.0066  138.2400  164.8359 Cl      1  UNL1       -0.0822
     26 C         141.9731  140.1472  163.3599 C.ar    1  UNL1        0.0114
     27 C         141.8246  141.1080  162.2176 C.ar    1  UNL1        0.0009
     28 C         143.0016  140.5094  156.4089 C.2     1  UNL1        0.2334
     29 O         143.9026  141.5747  156.9599 O.2     1  UNL1       -0.2743
     30 N         141.5672  140.8246  156.1035 N.am    1  UNL1       -0.3013
     31 H         140.9758  140.1255  155.7419 H       1  UNL1        0.1497
     32 C         141.9657  137.7691  157.8467 C.3     1  UNL1        0.0501
     33 C         143.0587  137.8696  156.8244 C.2     1  UNL1        0.0727
     34 N         143.8675  136.7280  156.2834 N.2     1  UNL1       -0.1561
     35 N         144.8436  137.2820  155.2882 N.2     1  UNL1       -0.1509
     36 C         144.6379  138.7660  155.2141 C.2     1  UNL1        0.1102
     37 C         143.5349  139.1291  156.1635 C.3     1  UNL1        0.1570
@<TRIPOS>BOND
     1    32    33    1
     2    33    34    2
     3    34    35    1
     4    35    36    2
     5    36    37    1
     6    37    28    1
     7    28    29    2
     8    28    30   am
     9     1    30    1
    10     1     2    1
    11     2     3    1
    12     3     4    1
    13     3     5    1
    14     3     6    1
    15     6     7    1
    16     7     8   ar
    17     8     9   ar
    18     9    13    1
    19    13    14   ar
    20    14    15   ar
    21    15    16   ar
    22    16    17    1
    23    16    18   ar
    24    18    19   ar
    25    19    20    1
    26     9    10   ar
    27    10    21    1
    28    21    22   ar
    29    22    23   ar
    30    23    24   ar
    31    24    25    1
    32    24    26   ar
    33    26    27   ar
    34    10    11   ar
    35    11    12   ar
    36    37    33    1
    37    12     1    1
    38    12     7   ar
    39    19    13   ar
    40    27    21   ar
    41    30    31    1
@<TRIPOS>MOLECULE
*****
 37 41 0 0 0
SMALL
GASTEIGER

@<TRIPOS>ATOM
      1 C         141.3959  139.2526  156.7147 C.3     1  UNL1        0.1021
      2 C         141.9532  138.2623  155.7355 C.3     1  UNL1        0.0643
      3 C         142.8204  137.1374  156.2179 C.3     1  UNL1        0.1368
      4 C         143.6842  135.9114  156.1893 C.3     1  UNL1        0.0437
      5 C         142.8106  136.8461  154.7465 C.3     1  UNL1        0.0437
      6 O         143.1303  137.0029  157.6794 O.3     1  UNL1       -0.4676
      7 C         142.5730  137.9932  158.6585 C.ar    1  UNL1        0.2219
      8 N         142.8828  137.8586  160.1200 N.ar    1  UNL1       -0.2119
      9 C         142.3255  138.8489  161.0991 C.ar    1  UNL1        0.0851
     10 C         141.4583  139.9738  160.6167 C.ar    1  UNL1        0.0177
     11 C         141.1484  140.1084  159.1552 C.ar    1  UNL1        0.0034
     12 C         141.7058  139.1180  158.1761 C.ar    1  UNL1        0.0488
     13 C         142.6353  138.7144  162.5605 C.ar    1  UNL1        0.0284
     14 C         143.8885  139.3196  163.1203 C.ar    1  UNL1        0.0032
     15 C         144.1984  139.1851  164.5818 C.ar    1  UNL1        0.0115
     16 C         143.2551  138.4453  165.4835 C.ar    1  UNL1        0.0585
     17 CL        143.5649  138.3107  166.9449 Cl      1  UNL1       -0.0822
     18 C         142.0020  137.8401  164.9236 C.ar    1  UNL1        0.0228
     19 C         141.6921  137.9746  163.4622 C.ar    1  UNL1        0.0599
     20 CL        140.4390  137.3694  162.9024 Cl      1  UNL1       -0.0822
     21 C         140.9010  140.9641  161.5958 C.ar    1  UNL1        0.0015
     22 C         139.5344  140.7555  162.1780 C.ar    1  UNL1        0.0009
     23 C         138.9771  141.7458  163.1571 C.ar    1  UNL1        0.0114
     24 C         139.7864  142.9448  163.5541 C.ar    1  UNL1        0.0577
     25 CL        139.2291  143.9351  164.5332 Cl      1  UNL1       -0.0822
     26 C         141.1529  143.1534  162.9719 C.ar    1  UNL1        0.0114
     27 C         141.7102  142.1631  161.9928 C.ar    1  UNL1        0.0009
     28 C         139.0566  140.1612  156.0423 C.2     1  UNL1        0.2334
     29 O         138.4517  138.8200  156.3346 O.2     1  UNL1       -0.2743
     30 N         140.5287  140.3775  156.2323 N.am    1  UNL1       -0.3013
     31 H         140.9258  141.2577  156.0405 H       1  UNL1        0.1497
     32 C         137.9550  142.6448  157.8499 C.3     1  UNL1        0.0501
     33 C         137.6830  142.4276  156.3908 C.2     1  UNL1        0.0727
     34 N         136.8570  143.3139  155.5065 N.2     1  UNL1       -0.1561
     35 N         136.8528  142.7201  154.1290 N.2     1  UNL1       -0.1509
     36 C         137.6763  141.4668  154.1621 C.2     1  UNL1        0.1102
     37 C         138.1894  141.2860  155.5600 C.3     1  UNL1        0.1570
@<TRIPOS>BOND
     1    32    33    1
     2    33    34    2
     3    34    35    1
     4    35    36    2
     5    36    37    1
     6    37    28    1
     7    28    29    2
     8    28    30   am
     9     1    30    1
    10     1     2    1
    11     2     3    1
    12     3     4    1
    13     3     5    1
    14     3     6    1
    15     6     7    1
    16     7     8   ar
    17     8     9   ar
    18     9    13    1
    19    13    14   ar
    20    14    15   ar
    21    15    16   ar
    22    16    17    1
    23    16    18   ar
    24    18    19   ar
    25    19    20    1
    26     9    10   ar
    27    10    21    1
    28    21    22   ar
    29    22    23   ar
    30    23    24   ar
    31    24    25    1
    32    24    26   ar
    33    26    27   ar
    34    10    11   ar
    35    11    12   ar
    36    37    33    1
    37    12     1    1
    38    12     7   ar
    39    19    13   ar
    40    27    21   ar
    41    30    31    1
@<TRIPOS>MOLECULE
*****
 37 41 0 0 0
SMALL
GASTEIGER

@<TRIPOS>ATOM
      1 C         140.2079  137.5738  156.3270 C.3     1  UNL1        0.1021
      2 C         140.8048  136.4965  155.4709 C.3     1  UNL1        0.0643
      3 C         142.2074  136.0287  155.7235 C.3     1  UNL1        0.1368
      4 C         143.4842  135.2560  155.5728 C.3     1  UNL1        0.0437
      5 C         141.8452  135.1508  154.5624 C.3     1  UNL1        0.0437
      6 O         143.0131  136.6383  156.8322 O.3     1  UNL1       -0.4676
      7 C         142.4162  137.7156  157.6883 C.ar    1  UNL1        0.2219
      8 N         143.2219  138.3252  158.7970 N.ar    1  UNL1       -0.2119
      9 C         142.6250  139.4025  159.6532 C.ar    1  UNL1        0.0851
     10 C         141.2224  139.8704  159.4006 C.ar    1  UNL1        0.0177
     11 C         140.4166  139.2608  158.2919 C.ar    1  UNL1        0.0034
     12 C         141.0136  138.1834  157.4357 C.ar    1  UNL1        0.0488
     13 C         143.4308  140.0121  160.7619 C.ar    1  UNL1        0.0284
     14 C         144.0971  141.3410  160.5617 C.ar    1  UNL1        0.0032
     15 C         144.9028  141.9506  161.6704 C.ar    1  UNL1        0.0115
     16 C         145.0422  141.2312  162.9793 C.ar    1  UNL1        0.0585
     17 CL        145.8479  141.8408  164.0880 Cl      1  UNL1       -0.0822
     18 C         144.3758  139.9024  163.1794 C.ar    1  UNL1        0.0228
     19 C         143.5701  139.2928  162.0707 C.ar    1  UNL1        0.0599
     20 CL        142.9038  137.9640  162.2709 Cl      1  UNL1       -0.0822
     21 C         140.6255  140.9477  160.2567 C.ar    1  UNL1        0.0015
     22 C         140.0579  140.6077  161.6029 C.ar    1  UNL1        0.0009
     23 C         139.4609  141.6851  162.4591 C.ar    1  UNL1        0.0114
     24 C         139.4317  143.1025  161.9690 C.ar    1  UNL1        0.0577
     25 CL        138.8348  144.1798  162.8252 Cl      1  UNL1       -0.0822
     26 C         139.9993  143.4425  160.6229 C.ar    1  UNL1        0.0114
     27 C         140.5962  142.3651  159.7667 C.ar    1  UNL1        0.0009
     28 C         138.5625  139.2858  155.2725 C.2     1  UNL1        0.2334
     29 O         139.7225  140.0622  154.7231 O.2     1  UNL1       -0.2743
     30 N         138.8052  138.0416  156.0745 N.am    1  UNL1       -0.3013
     31 H         138.0439  137.5321  156.4351 H       1  UNL1        0.1497
     32 C         137.0365  141.7070  156.8405 C.3     1  UNL1        0.0501
     33 C         136.4585  140.8666  155.7407 C.2     1  UNL1        0.0727
     34 N         135.0776  140.9915  155.1685 N.2     1  UNL1       -0.1561
     35 N         134.9255  139.9557  154.0941 N.2     1  UNL1       -0.1509
     36 C         136.2125  139.1907  154.0024 C.2     1  UNL1        0.1102
     37 C         137.1599  139.7537  155.0200 C.3     1  UNL1        0.1570
@<TRIPOS>BOND
     1    32    33    1
     2    33    34    2
     3    34    35    1
     4    35    36    2
     5    36    37    1
     6    37    28    1
     7    28    29    2
     8    28    30   am
     9     1    30    1
    10     1     2    1
    11     2     3    1
    12     3     4    1
    13     3     5    1
    14     3     6    1
    15     6     7    1
    16     7     8   ar
    17     8     9   ar
    18     9    13    1
    19    13    14   ar
    20    14    15   ar
    21    15    16   ar
    22    16    17    1
    23    16    18   ar
    24    18    19   ar
    25    19    20    1
    26     9    10   ar
    27    10    21    1
    28    21    22   ar
    29    22    23   ar
    30    23    24   ar
    31    24    25    1
    32    24    26   ar
    33    26    27   ar
    34    10    11   ar
    35    11    12   ar
    36    37    33    1
    37    12     1    1
    38    12     7   ar
    39    19    13   ar
    40    27    21   ar
    41    30    31    1
@<TRIPOS>MOLECULE
*****
 37 41 0 0 0
SMALL
GASTEIGER

@<TRIPOS>ATOM
      1 C         142.1481  138.5405  156.5283 C.3     1  UNL1        0.1021
      2 C         142.6892  139.1294  155.2593 C.3     1  UNL1        0.0643
      3 C         142.8965  140.6109  155.1487 C.3     1  UNL1        0.1368
      4 C         143.2641  141.9430  154.5655 C.3     1  UNL1        0.0437
      5 C         143.3579  140.1810  153.7877 C.3     1  UNL1        0.0437
      6 O         142.5627  141.5034  156.3071 O.3     1  UNL1       -0.4676
      7 C         142.0216  140.9145  157.5761 C.ar    1  UNL1        0.2219
      8 N         141.6879  141.8071  158.7345 N.ar    1  UNL1       -0.2119
      9 C         141.1468  141.2182  160.0035 C.ar    1  UNL1        0.0851
     10 C         140.9394  139.7367  160.1141 C.ar    1  UNL1        0.0177
     11 C         141.2732  138.8441  158.9557 C.ar    1  UNL1        0.0034
     12 C         141.8143  139.4331  157.6867 C.ar    1  UNL1        0.0488
     13 C         140.8130  142.1108  161.1619 C.ar    1  UNL1        0.0284
     14 C         141.8577  142.4260  162.1912 C.ar    1  UNL1        0.0032
     15 C         141.5239  143.3185  163.3497 C.ar    1  UNL1        0.0115
     16 C         140.1455  143.8959  163.4788 C.ar    1  UNL1        0.0585
     17 CL        139.8117  144.7885  164.6372 Cl      1  UNL1       -0.0822
     18 C         139.1009  143.5807  162.4495 C.ar    1  UNL1        0.0228
     19 C         139.4347  142.6882  161.2911 C.ar    1  UNL1        0.0599
     20 CL        138.3901  142.3730  160.2618 Cl      1  UNL1       -0.0822
     21 C         140.3983  139.1478  161.3831 C.ar    1  UNL1        0.0015
     22 C         141.3366  138.7360  162.4786 C.ar    1  UNL1        0.0009
     23 C         140.7954  138.1471  163.7477 C.ar    1  UNL1        0.0114
     24 C         139.3161  137.9700  163.9212 C.ar    1  UNL1        0.0577
     25 CL        138.7750  137.3811  165.1902 Cl      1  UNL1       -0.0822
     26 C         138.3778  138.3818  162.8257 C.ar    1  UNL1        0.0114
     27 C         138.9189  138.9707  161.5567 C.ar    1  UNL1        0.0009
     28 C         143.0566  136.1177  156.2942 C.2     1  UNL1        0.2334
     29 O         144.3799  136.6580  155.8389 O.2     1  UNL1       -0.2743
     30 N         141.9407  137.0590  156.6389 N.am    1  UNL1       -0.3013
     31 H         141.0722  136.7044  156.9377 H       1  UNL1        0.1497
     32 C         141.3748  134.2552  154.2081 C.3     1  UNL1        0.0501
     33 C         142.0763  133.7802  155.4459 C.2     1  UNL1        0.0727
     34 N         142.1278  132.3656  155.9422 N.2     1  UNL1       -0.1561
     35 N         142.9328  132.3474  157.2079 N.2     1  UNL1       -0.1509
     36 C         143.3786  133.7508  157.4937 C.2     1  UNL1        0.1102
     37 C         142.8493  134.6363  156.4048 C.3     1  UNL1        0.1570
@<TRIPOS>BOND
     1    32    33    1
     2    33    34    2
     3    34    35    1
     4    35    36    2
     5    36    37    1
     6    37    28    1
     7    28    29    2
     8    28    30   am
     9     1    30    1
    10     1     2    1
    11     2     3    1
    12     3     4    1
    13     3     5    1
    14     3     6    1
    15     6     7    1
    16     7     8   ar
    17     8     9   ar
    18     9    13    1
    19    13    14   ar
    20    14    15   ar
    21    15    16   ar
    22    16    17    1
    23    16    18   ar
    24    18    19   ar
    25    19    20    1
    26     9    10   ar
    27    10    21    1
    28    21    22   ar
    29    22    23   ar
    30    23    24   ar
    31    24    25    1
    32    24    26   ar
    33    26    27   ar
    34    10    11   ar
    35    11    12   ar
    36    37    33    1
    37    12     1    1
    38    12     7   ar
    39    19    13   ar
    40    27    21   ar
    41    30    31    1
