@<TRIPOS>MOLECULE
*****
 29 31 0 0 0
SMALL
GASTEIGER

@<TRIPOS>ATOM
      1 N         139.6550  142.9546  163.5695 N.pl3   1  UNL1       -0.2784
      2 C         138.2995  142.3487  163.7824 C.3     1  UNL1        0.0950
      3 C         138.0938  141.3336  164.8673 C.3     1  UNL1        0.0375
      4 C         139.2437  140.9243  165.7393 C.3     1  UNL1        0.0610
      5 C         140.5992  141.5302  165.5264 C.3     1  UNL1        0.0375
      6 C         140.8049  142.5453  164.4414 C.3     1  UNL1        0.0950
      7 N         141.7560  145.6403  159.5378 N.pl3   1  UNL1       -0.3277
      8 C         140.8265  145.2043  160.6314 C.ar    1  UNL1        0.2131
      9 N         139.5281  145.8598  160.9985 N.ar    1  UNL1       -0.1121
     10 N         138.9313  145.0968  162.1438 N.ar    1  UNL1       -0.1117
     11 C         139.8608  143.9698  162.4845 C.ar    1  UNL1        0.2194
     12 N         141.0320  144.0363  161.5497 N.ar    1  UNL1       -0.2979
     13 H         141.5328  146.4240  158.9853 H       1  UNL1        0.1451
     14 H         142.5893  145.1429  159.3726 H       1  UNL1        0.1451
     15 H         141.8007  143.4212  161.5406 H       1  UNL1        0.1713
     16 N         139.0380  139.9091  166.8243 N.3     1  UNL1       -0.2715
     17 C         139.8049  140.0183  168.1088 C.3     1  UNL1        0.1042
     18 C         139.0977  140.4041  169.3740 C.3     1  UNL1        0.1544
     19 O         139.4577  139.7363  170.6680 O.3     1  UNL1       -0.3805
     20 H         139.2151  138.7981  170.6261 H       1  UNL1        0.2105
     21 C         138.0653  138.7848  166.6247 C.3     1  UNL1        0.0768
     22 C         138.4918  137.5444  165.8969 C.3     1  UNL1        0.0437
     23 C         139.3452  137.6518  164.6680 C.ar    1  UNL1       -0.0207
     24 C         140.8378  137.5545  164.7805 C.ar    1  UNL1       -0.0034
     25 C         141.6911  137.6619  163.5516 C.ar    1  UNL1        0.0111
     26 C         141.0518  137.8667  162.2102 C.ar    1  UNL1        0.0577
     27 CL        141.9052  137.9741  160.9813 Cl      1  UNL1       -0.0822
     28 C         139.5592  137.9640  162.0977 C.ar    1  UNL1        0.0111
     29 C         138.7059  137.8566  163.3267 C.ar    1  UNL1       -0.0034
@<TRIPOS>BOND
     1     7     8    1
     2     8     9   ar
     3     9    10   ar
     4    10    11   ar
     5    11     1    1
     6     1     2    1
     7     2     3    1
     8     3     4    1
     9     4    16    1
    10    16    17    1
    11    17    18    1
    12    18    19    1
    13    16    21    1
    14    21    22    1
    15    22    23    1
    16    23    24   ar
    17    24    25   ar
    18    25    26   ar
    19    26    27    1
    20    26    28   ar
    21    28    29   ar
    22     4     5    1
    23     5     6    1
    24    11    12   ar
    25    12     8   ar
    26     6     1    1
    27    29    23   ar
    28     7    13    1
    29     7    14    1
    30    19    20    1
    31    12    15    1
@<TRIPOS>MOLECULE
*****
 29 31 0 0 0
SMALL
GASTEIGER

@<TRIPOS>ATOM
      1 N         140.5060  141.7429  167.2375 N.pl3   1  UNL1       -0.2784
      2 C         139.5986  140.5634  167.4255 C.3     1  UNL1        0.0950
      3 C         139.1831  139.7407  166.2421 C.3     1  UNL1        0.0375
      4 C         139.6749  140.0975  164.8707 C.3     1  UNL1        0.0610
      5 C         140.5823  141.2770  164.6827 C.3     1  UNL1        0.0375
      6 C         140.9979  142.0997  165.8661 C.3     1  UNL1        0.0950
      7 N         143.3563  143.7667  171.1950 N.pl3   1  UNL1       -0.3277
      8 C         142.2317  143.4958  170.2400 C.ar    1  UNL1        0.2131
      9 N         140.8904  144.1675  170.2441 N.ar    1  UNL1       -0.1121
     10 N         140.0808  143.5925  169.1199 N.ar    1  UNL1       -0.1117
     11 C         140.9216  142.5656  168.4210 C.ar    1  UNL1        0.2194
     12 N         142.2509  142.5059  169.1133 N.ar    1  UNL1       -0.2979
     13 H         143.2474  144.4393  171.9057 H       1  UNL1        0.1451
     14 H         144.2032  143.2719  171.1112 H       1  UNL1        0.1451
     15 H         143.0039  141.9198  168.8707 H       1  UNL1        0.1713
     16 N         139.2593  139.2748  163.6873 N.3     1  UNL1       -0.2715
     17 C         138.7013  139.9449  162.4668 C.3     1  UNL1        0.1042
     18 C         137.9618  141.2435  162.5961 C.3     1  UNL1        0.1544
     19 O         136.5861  141.2670  163.1935 O.3     1  UNL1       -0.3805
     20 H         135.9735  140.7885  162.6133 H       1  UNL1        0.2105
     21 C         139.4018  137.7821  163.7244 C.3     1  UNL1        0.0768
     22 C         140.7413  137.1630  163.9938 C.3     1  UNL1        0.0437
     23 C         141.9722  138.0198  164.0188 C.ar    1  UNL1       -0.0207
     24 C         142.6586  138.3088  165.3209 C.ar    1  UNL1       -0.0034
     25 C         143.8895  139.1656  165.3459 C.ar    1  UNL1        0.0111
     26 C         144.4341  139.7335  164.0687 C.ar    1  UNL1        0.0577
     27 CL        145.6650  140.5904  164.0937 Cl      1  UNL1       -0.0822
     28 C         143.7477  139.4446  162.7667 C.ar    1  UNL1        0.0111
     29 C         142.5167  138.5877  162.7417 C.ar    1  UNL1       -0.0034
@<TRIPOS>BOND
     1     7     8    1
     2     8     9   ar
     3     9    10   ar
     4    10    11   ar
     5    11     1    1
     6     1     2    1
     7     2     3    1
     8     3     4    1
     9     4    16    1
    10    16    17    1
    11    17    18    1
    12    18    19    1
    13    16    21    1
    14    21    22    1
    15    22    23    1
    16    23    24   ar
    17    24    25   ar
    18    25    26   ar
    19    26    27    1
    20    26    28   ar
    21    28    29   ar
    22     4     5    1
    23     5     6    1
    24    11    12   ar
    25    12     8   ar
    26     6     1    1
    27    29    23   ar
    28     7    13    1
    29     7    14    1
    30    19    20    1
    31    12    15    1
@<TRIPOS>MOLECULE
*****
 29 31 0 0 0
SMALL
GASTEIGER

@<TRIPOS>ATOM
      1 N         140.4021  141.2836  168.0192 N.pl3   1  UNL1       -0.2784
      2 C         140.5380  142.0122  166.7151 C.3     1  UNL1        0.0950
      3 C         139.9014  141.4566  165.4758 C.3     1  UNL1        0.0375
      4 C         139.1288  140.1725  165.5405 C.3     1  UNL1        0.0610
      5 C         138.9928  139.4440  166.8446 C.3     1  UNL1        0.0375
      6 C         139.6295  139.9995  168.0839 C.3     1  UNL1        0.0950
      7 N         143.5744  144.0004  171.2498 N.pl3   1  UNL1       -0.3277
      8 C         142.4969  143.0879  170.7436 C.ar    1  UNL1        0.2131
      9 N         141.5398  142.3000  171.5883 N.ar    1  UNL1       -0.1121
     10 N         140.6387  141.5283  170.6705 N.ar    1  UNL1       -0.1117
     11 C         141.0387  141.8391  169.2587 C.ar    1  UNL1        0.2194
     12 N         142.1871  142.8030  169.3038 N.ar    1  UNL1       -0.2979
     13 H         143.7006  144.1231  172.2184 H       1  UNL1        0.1451
     14 H         144.1554  144.4765  170.6134 H       1  UNL1        0.1451
     15 H         142.6554  143.1821  168.5252 H       1  UNL1        0.1713
     16 N         138.4921  139.6170  164.3011 N.3     1  UNL1       -0.2715
     17 C         137.7417  140.5247  163.3721 C.3     1  UNL1        0.1042
     18 C         137.9197  140.3928  161.8885 C.3     1  UNL1        0.1544
     19 O         136.9655  139.5549  161.0902 O.3     1  UNL1       -0.3805
     20 H         137.0585  138.6245  161.3481 H       1  UNL1        0.2105
     21 C         138.6059  138.1539  163.9907 C.3     1  UNL1        0.0768
     22 C         139.8213  137.6292  163.2852 C.3     1  UNL1        0.0437
     23 C         141.1652  138.2399  163.5514 C.ar    1  UNL1       -0.0207
     24 C         141.7907  139.1485  162.5350 C.ar    1  UNL1       -0.0034
     25 C         143.1346  139.7593  162.8012 C.ar    1  UNL1        0.0111
     26 C         143.8530  139.4613  164.0839 C.ar    1  UNL1        0.0577
     27 CL        145.1970  140.0720  164.3501 Cl      1  UNL1       -0.0822
     28 C         143.2275  138.5527  165.1003 C.ar    1  UNL1        0.0111
     29 C         141.8835  137.9419  164.8340 C.ar    1  UNL1       -0.0034
@<TRIPOS>BOND
     1     7     8    1
     2     8     9   ar
     3     9    10   ar
     4    10    11   ar
     5    11     1    1
     6     1     2    1
     7     2     3    1
     8     3     4    1
     9     4    16    1
    10    16    17    1
    11    17    18    1
    12    18    19    1
    13    16    21    1
    14    21    22    1
    15    22    23    1
    16    23    24   ar
    17    24    25   ar
    18    25    26   ar
    19    26    27    1
    20    26    28   ar
    21    28    29   ar
    22     4     5    1
    23     5     6    1
    24    11    12   ar
    25    12     8   ar
    26     6     1    1
    27    29    23   ar
    28     7    13    1
    29     7    14    1
    30    19    20    1
    31    12    15    1
@<TRIPOS>MOLECULE
*****
 29 31 0 0 0
SMALL
GASTEIGER

@<TRIPOS>ATOM
      1 N         140.4301  143.8572  163.7111 N.pl3   1  UNL1       -0.2784
      2 C         139.4906  144.3164  164.7866 C.3     1  UNL1        0.0950
      3 C         139.4882  143.6334  166.1220 C.3     1  UNL1        0.0375
      4 C         140.4252  142.4913  166.3821 C.3     1  UNL1        0.0610
      5 C         141.3647  142.0322  165.3067 C.3     1  UNL1        0.0375
      6 C         141.3671  142.7151  163.9712 C.3     1  UNL1        0.0950
      7 N         141.9863  145.6834  159.0075 N.pl3   1  UNL1       -0.3277
      8 C         141.1478  145.3795  160.2136 C.ar    1  UNL1        0.2131
      9 N         139.7246  145.8026  160.4273 N.ar    1  UNL1       -0.1121
     10 N         139.2826  145.2838  161.7635 N.ar    1  UNL1       -0.1117
     11 C         140.4325  144.5401  162.3756 C.ar    1  UNL1        0.2194
     12 N         141.5853  144.5993  161.4177 N.ar    1  UNL1       -0.2979
     13 H         141.6079  146.2058  158.2638 H       1  UNL1        0.1451
     14 H         142.9151  145.3604  158.9596 H       1  UNL1        0.1451
     15 H         142.4732  144.1968  161.5551 H       1  UNL1        0.1713
     16 N         140.4228  141.8084  167.7177 N.3     1  UNL1       -0.2715
     17 C         140.5889  142.6138  168.9721 C.3     1  UNL1        0.1042
     18 C         139.8008  142.2622  170.1990 C.3     1  UNL1        0.1544
     19 O         139.3355  143.3447  171.1273 O.3     1  UNL1       -0.3805
     20 H         140.1038  143.7663  171.5432 H       1  UNL1        0.2105
     21 C         140.2542  140.3201  167.7987 C.3     1  UNL1        0.0768
     22 C         138.9825  139.6823  167.3230 C.3     1  UNL1        0.0437
     23 C         138.8106  139.3434  165.8720 C.ar    1  UNL1       -0.0207
     24 C         139.3349  138.0434  165.3382 C.ar    1  UNL1       -0.0034
     25 C         139.1630  137.7045  163.8871 C.ar    1  UNL1        0.0111
     26 C         138.4668  138.6657  162.9698 C.ar    1  UNL1        0.0577
     27 CL        138.2949  138.3268  161.5188 Cl      1  UNL1       -0.0822
     28 C         137.9425  139.9657  163.5036 C.ar    1  UNL1        0.0111
     29 C         138.1144  140.3046  164.9547 C.ar    1  UNL1       -0.0034
@<TRIPOS>BOND
     1     7     8    1
     2     8     9   ar
     3     9    10   ar
     4    10    11   ar
     5    11     1    1
     6     1     2    1
     7     2     3    1
     8     3     4    1
     9     4    16    1
    10    16    17    1
    11    17    18    1
    12    18    19    1
    13    16    21    1
    14    21    22    1
    15    22    23    1
    16    23    24   ar
    17    24    25   ar
    18    25    26   ar
    19    26    27    1
    20    26    28   ar
    21    28    29   ar
    22     4     5    1
    23     5     6    1
    24    11    12   ar
    25    12     8   ar
    26     6     1    1
    27    29    23   ar
    28     7    13    1
    29     7    14    1
    30    19    20    1
    31    12    15    1
@<TRIPOS>MOLECULE
*****
 29 31 0 0 0
SMALL
GASTEIGER

@<TRIPOS>ATOM
      1 N         139.9054  140.1635  167.5217 N.pl3   1  UNL1       -0.2784
      2 C         140.7656  140.6296  166.3848 C.3     1  UNL1        0.0950
      3 C         140.4317  140.2287  164.9784 C.3     1  UNL1        0.0375
      4 C         139.2377  139.3617  164.7091 C.3     1  UNL1        0.0610
      5 C         138.3775  138.8955  165.8461 C.3     1  UNL1        0.0375
      6 C         138.7114  139.2964  167.2524 C.3     1  UNL1        0.0950
      7 N         142.1873  142.5019  171.6698 N.pl3   1  UNL1       -0.3277
      8 C         141.2881  141.6392  170.8348 C.ar    1  UNL1        0.2131
      9 N         140.2177  140.7232  171.3499 N.ar    1  UNL1       -0.1121
     10 N         139.5695  140.0590  170.1716 N.ar    1  UNL1       -0.1117
     11 C         140.2392  140.5644  168.9282 C.ar    1  UNL1        0.2194
     12 N         141.3014  141.5410  169.3381 N.ar    1  UNL1       -0.2979
     13 H         142.1017  142.4977  172.6505 H       1  UNL1        0.1451
     14 H         142.8630  143.0723  171.2370 H       1  UNL1        0.1451
     15 H         141.9018  142.0314  168.7313 H       1  UNL1        0.1713
     16 N         138.9039  138.9608  163.3027 N.3     1  UNL1       -0.2715
     17 C         139.5559  137.7561  162.6914 C.3     1  UNL1        0.1042
     18 C         141.0195  137.5064  162.9044 C.3     1  UNL1        0.1544
     19 O         141.8843  137.0875  161.7525 O.3     1  UNL1       -0.3805
     20 H         141.6123  136.2079  161.4471 H       1  UNL1        0.2105
     21 C         137.9181  139.7645  162.5076 C.3     1  UNL1        0.0768
     22 C         137.3481  141.0294  163.0781 C.3     1  UNL1        0.0437
     23 C         138.0288  142.3412  162.8217 C.ar    1  UNL1       -0.0207
     24 C         138.8163  142.5438  161.5613 C.ar    1  UNL1       -0.0034
     25 C         139.4970  143.8556  161.3049 C.ar    1  UNL1        0.0111
     26 C         139.3902  144.9649  162.3090 C.ar    1  UNL1        0.0577
     27 CL        140.0709  146.2767  162.0526 Cl      1  UNL1       -0.0822
     28 C         138.6026  144.7623  163.5694 C.ar    1  UNL1        0.0111
     29 C         137.9219  143.4504  163.8258 C.ar    1  UNL1       -0.0034
@<TRIPOS>BOND
     1     7     8    1
     2     8     9   ar
     3     9    10   ar
     4    10    11   ar
     5    11     1    1
     6     1     2    1
     7     2     3    1
     8     3     4    1
     9     4    16    1
    10    16    17    1
    11    17    18    1
    12    18    19    1
    13    16    21    1
    14    21    22    1
    15    22    23    1
    16    23    24   ar
    17    24    25   ar
    18    25    26   ar
    19    26    27    1
    20    26    28   ar
    21    28    29   ar
    22     4     5    1
    23     5     6    1
    24    11    12   ar
    25    12     8   ar
    26     6     1    1
    27    29    23   ar
    28     7    13    1
    29     7    14    1
    30    19    20    1
    31    12    15    1
@<TRIPOS>MOLECULE
*****
 29 31 0 0 0
SMALL
GASTEIGER

@<TRIPOS>ATOM
      1 N         141.5680  143.7351  164.4117 N.pl3   1  UNL1       -0.2784
      2 C         143.0065  143.3711  164.6310 C.3     1  UNL1        0.0950
      3 C         143.4147  142.6458  165.8789 C.3     1  UNL1        0.0375
      4 C         142.3844  142.2844  166.9074 C.3     1  UNL1        0.0610
      5 C         140.9459  142.6484  166.6881 C.3     1  UNL1        0.0375
      6 C         140.5377  143.3737  165.4402 C.3     1  UNL1        0.0950
      7 N         139.0030  146.9047  161.0568 N.pl3   1  UNL1       -0.3277
      8 C         139.9807  145.9173  161.6217 C.ar    1  UNL1        0.2131
      9 N         141.0823  145.2358  160.8652 N.ar    1  UNL1       -0.1121
     10 N         141.8109  144.3354  161.8182 N.ar    1  UNL1       -0.1117
     11 C         141.1597  144.4604  163.1637 C.ar    1  UNL1        0.2194
     12 N         140.0286  145.4381  163.0423 N.ar    1  UNL1       -0.2979
     13 H         139.0523  147.1577  160.1066 H       1  UNL1        0.1451
     14 H         138.3120  147.2998  161.6362 H       1  UNL1        0.1451
     15 H         139.4239  145.7164  163.7675 H       1  UNL1        0.1713
     16 N         142.7927  141.5590  168.1553 N.3     1  UNL1       -0.2715
     17 C         143.4668  142.3039  169.2692 C.3     1  UNL1        0.1042
     18 C         142.6435  143.0087  170.3062 C.3     1  UNL1        0.1544
     19 O         143.2607  144.0844  171.1499 O.3     1  UNL1       -0.3805
     20 H         143.9428  143.6966  171.7203 H       1  UNL1        0.2105
     21 C         142.5268  140.0889  168.2893 C.3     1  UNL1        0.0768
     22 C         142.8994  139.1548  167.1763 C.3     1  UNL1        0.0437
     23 C         141.8771  138.7652  166.1502 C.ar    1  UNL1       -0.0207
     24 C         140.4553  139.2200  166.2977 C.ar    1  UNL1       -0.0034
     25 C         139.4330  138.8304  165.2716 C.ar    1  UNL1        0.0111
     26 C         139.8323  137.9859  164.0979 C.ar    1  UNL1        0.0577
     27 CL        138.8100  137.5963  163.0718 Cl      1  UNL1       -0.0822
     28 C         141.2541  137.5311  163.9504 C.ar    1  UNL1        0.0111
     29 C         142.2765  137.9208  164.9766 C.ar    1  UNL1       -0.0034
@<TRIPOS>BOND
     1     7     8    1
     2     8     9   ar
     3     9    10   ar
     4    10    11   ar
     5    11     1    1
     6     1     2    1
     7     2     3    1
     8     3     4    1
     9     4    16    1
    10    16    17    1
    11    17    18    1
    12    18    19    1
    13    16    21    1
    14    21    22    1
    15    22    23    1
    16    23    24   ar
    17    24    25   ar
    18    25    26   ar
    19    26    27    1
    20    26    28   ar
    21    28    29   ar
    22     4     5    1
    23     5     6    1
    24    11    12   ar
    25    12     8   ar
    26     6     1    1
    27    29    23   ar
    28     7    13    1
    29     7    14    1
    30    19    20    1
    31    12    15    1
@<TRIPOS>MOLECULE
*****
 29 31 0 0 0
SMALL
GASTEIGER

@<TRIPOS>ATOM
      1 N         140.0389  141.3459  167.0908 N.pl3   1  UNL1       -0.2784
      2 C         140.3215  142.8163  167.0011 C.3     1  UNL1        0.0950
      3 C         139.8859  143.5913  165.7930 C.3     1  UNL1        0.0375
      4 C         139.1678  142.8960  164.6747 C.3     1  UNL1        0.0610
      5 C         138.8852  141.4257  164.7643 C.3     1  UNL1        0.0375
      6 C         139.3208  140.6506  165.9724 C.3     1  UNL1        0.0950
      7 N         143.0242  138.7147  170.5616 N.pl3   1  UNL1       -0.3277
      8 C         141.8467  139.3613  169.8942 C.ar    1  UNL1        0.2131
      9 N         140.4428  139.3945  170.4217 N.ar    1  UNL1       -0.1121
     10 N         139.5948  140.1419  169.4357 N.ar    1  UNL1       -0.1117
     11 C         140.4745  140.5707  168.2989 C.ar    1  UNL1        0.2194
     12 N         141.8662  140.0883  168.5823 N.ar    1  UNL1       -0.2979
     13 H         142.9106  138.2588  171.4267 H       1  UNL1        0.1451
     14 H         143.9107  138.7463  170.1345 H       1  UNL1        0.1451
     15 H         142.6542  140.2248  168.0081 H       1  UNL1        0.1713
     16 N         138.7322  143.6712  163.4665 N.3     1  UNL1       -0.2715
     17 C         137.7674  143.0625  162.4926 C.3     1  UNL1        0.1042
     18 C         138.2723  142.4520  161.2189 C.3     1  UNL1        0.1544
     19 O         138.6326  143.3302  160.0575 O.3     1  UNL1       -0.3805
     20 H         137.8340  143.7673  159.7226 H       1  UNL1        0.2105
     21 C         139.2614  145.0551  163.2324 C.3     1  UNL1        0.0768
     22 C         140.5323  145.2513  162.4602 C.3     1  UNL1        0.0437
     23 C         141.7702  144.4989  162.8493 C.ar    1  UNL1       -0.0207
     24 C         142.0470  143.1507  162.2529 C.ar    1  UNL1       -0.0034
     25 C         143.2848  142.3983  162.6421 C.ar    1  UNL1        0.0111
     26 C         144.2460  142.9941  163.6276 C.ar    1  UNL1        0.0577
     27 CL        145.4839  142.2417  164.0167 Cl      1  UNL1       -0.0822
     28 C         143.9693  144.3423  164.2239 C.ar    1  UNL1        0.0111
     29 C         142.7313  145.0948  163.8348 C.ar    1  UNL1       -0.0034
@<TRIPOS>BOND
     1     7     8    1
     2     8     9   ar
     3     9    10   ar
     4    10    11   ar
     5    11     1    1
     6     1     2    1
     7     2     3    1
     8     3     4    1
     9     4    16    1
    10    16    17    1
    11    17    18    1
    12    18    19    1
    13    16    21    1
    14    21    22    1
    15    22    23    1
    16    23    24   ar
    17    24    25   ar
    18    25    26   ar
    19    26    27    1
    20    26    28   ar
    21    28    29   ar
    22     4     5    1
    23     5     6    1
    24    11    12   ar
    25    12     8   ar
    26     6     1    1
    27    29    23   ar
    28     7    13    1
    29     7    14    1
    30    19    20    1
    31    12    15    1
@<TRIPOS>MOLECULE
*****
 29 31 0 0 0
SMALL
GASTEIGER

@<TRIPOS>ATOM
      1 N         141.2819  142.1432  167.4596 N.pl3   1  UNL1       -0.2784
      2 C         142.7619  142.2492  167.6795 C.3     1  UNL1        0.0950
      3 C         143.6677  142.5913  166.5339 C.3     1  UNL1        0.0375
      4 C         143.0935  142.8274  165.1684 C.3     1  UNL1        0.0610
      5 C         141.6136  142.7214  164.9485 C.3     1  UNL1        0.0375
      6 C         140.7078  142.3793  166.0941 C.3     1  UNL1        0.0950
      7 N         137.8829  139.5771  170.5810 N.pl3   1  UNL1       -0.3277
      8 C         138.8137  140.6216  170.0399 C.ar    1  UNL1        0.2131
      9 N         139.1505  141.9277  170.6963 N.ar    1  UNL1       -0.1121
     10 N         140.1160  142.6566  169.8095 N.ar    1  UNL1       -0.1117
     11 C         140.3760  141.8010  168.6052 C.ar    1  UNL1        0.2194
     12 N         139.5711  140.5433  168.7476 N.ar    1  UNL1       -0.2979
     13 H         137.4296  139.7207  171.4431 H       1  UNL1        0.1451
     14 H         137.7252  138.7481  170.0740 H       1  UNL1        0.1451
     15 H         139.5446  139.7975  168.1056 H       1  UNL1        0.1713
     16 N         143.9994  143.1695  164.0227 N.3     1  UNL1       -0.2715
     17 C         143.6383  144.2862  163.0887 C.3     1  UNL1        0.1042
     18 C         143.0344  143.9790  161.7504 C.3     1  UNL1        0.1544
     19 O         142.1822  145.0020  161.0595 O.3     1  UNL1       -0.3805
     20 H         141.3725  145.1485  161.5731 H       1  UNL1        0.2105
     21 C         145.2664  142.3949  163.8112 C.3     1  UNL1        0.0768
     22 C         145.2179  141.0365  163.1768 C.3     1  UNL1        0.0437
     23 C         144.1342  140.0706  163.5543 C.ar    1  UNL1       -0.0207
     24 C         144.1943  139.3527  164.8700 C.ar    1  UNL1       -0.0034
     25 C         143.1105  138.3869  165.2476 C.ar    1  UNL1        0.0111
     26 C         141.9666  138.1389  164.3094 C.ar    1  UNL1        0.0577
     27 CL        140.8828  137.1730  164.6869 Cl      1  UNL1       -0.0822
     28 C         141.9065  138.8568  162.9937 C.ar    1  UNL1        0.0111
     29 C         142.9903  139.8227  162.6162 C.ar    1  UNL1       -0.0034
@<TRIPOS>BOND
     1     7     8    1
     2     8     9   ar
     3     9    10   ar
     4    10    11   ar
     5    11     1    1
     6     1     2    1
     7     2     3    1
     8     3     4    1
     9     4    16    1
    10    16    17    1
    11    17    18    1
    12    18    19    1
    13    16    21    1
    14    21    22    1
    15    22    23    1
    16    23    24   ar
    17    24    25   ar
    18    25    26   ar
    19    26    27    1
    20    26    28   ar
    21    28    29   ar
    22     4     5    1
    23     5     6    1
    24    11    12   ar
    25    12     8   ar
    26     6     1    1
    27    29    23   ar
    28     7    13    1
    29     7    14    1
    30    19    20    1
    31    12    15    1
@<TRIPOS>MOLECULE
*****
 29 31 0 0 0
SMALL
GASTEIGER

@<TRIPOS>ATOM
      1 N         139.5783  140.1052  167.3064 N.pl3   1  UNL1       -0.2784
      2 C         138.4671  139.1840  166.8981 C.3     1  UNL1        0.0950
      3 C         138.0508  139.1027  165.4594 C.3     1  UNL1        0.0375
      4 C         138.7457  139.9425  164.4289 C.3     1  UNL1        0.0610
      5 C         139.8569  140.8637  164.8372 C.3     1  UNL1        0.0375
      6 C         140.2731  140.9450  166.2759 C.3     1  UNL1        0.0950
      7 N         142.5278  140.5517  171.6633 N.pl3   1  UNL1       -0.3277
      8 C         141.3503  140.3918  170.7478 C.ar    1  UNL1        0.2131
      9 N         139.9201  140.2318  171.1707 N.ar    1  UNL1       -0.1121
     10 N         139.0822  140.1050  169.9330 N.ar    1  UNL1       -0.1117
     11 C         139.9946  140.1866  168.7452 C.ar    1  UNL1        0.2194
     12 N         141.3964  140.3638  169.2488 N.ar    1  UNL1       -0.2979
     13 H         142.3956  140.5577  172.6388 H       1  UNL1        0.1451
     14 H         143.4328  140.6505  171.2885 H       1  UNL1        0.1451
     15 H         142.2047  140.4472  168.6930 H       1  UNL1        0.1713
     16 N         138.3294  139.8611  162.9901 N.3     1  UNL1       -0.2715
     17 C         137.9467  141.1076  162.2484 C.3     1  UNL1        0.1042
     18 C         137.4426  142.3032  163.0009 C.3     1  UNL1        0.1544
     19 O         137.3230  143.6289  162.3094 O.3     1  UNL1       -0.3805
     20 H         138.2065  143.9491  162.0691 H       1  UNL1        0.2105
     21 C         138.2957  138.5334  162.2930 C.3     1  UNL1        0.0768
     22 C         139.5699  137.9091  161.8066 C.3     1  UNL1        0.0437
     23 C         140.8758  138.2718  162.4493 C.ar    1  UNL1       -0.0207
     24 C         141.2706  137.6430  163.7527 C.ar    1  UNL1       -0.0034
     25 C         142.5764  138.0057  164.3953 C.ar    1  UNL1        0.0111
     26 C         143.4877  138.9973  163.7346 C.ar    1  UNL1        0.0577
     27 CL        144.7936  139.3601  164.3772 Cl      1  UNL1       -0.0822
     28 C         143.0929  139.6261  162.4312 C.ar    1  UNL1        0.0111
     29 C         141.7870  139.2634  161.7886 C.ar    1  UNL1       -0.0034
@<TRIPOS>BOND
     1     7     8    1
     2     8     9   ar
     3     9    10   ar
     4    10    11   ar
     5    11     1    1
     6     1     2    1
     7     2     3    1
     8     3     4    1
     9     4    16    1
    10    16    17    1
    11    17    18    1
    12    18    19    1
    13    16    21    1
    14    21    22    1
    15    22    23    1
    16    23    24   ar
    17    24    25   ar
    18    25    26   ar
    19    26    27    1
    20    26    28   ar
    21    28    29   ar
    22     4     5    1
    23     5     6    1
    24    11    12   ar
    25    12     8   ar
    26     6     1    1
    27    29    23   ar
    28     7    13    1
    29     7    14    1
    30    19    20    1
    31    12    15    1
