@<TRIPOS>MOLECULE
*****
 12 13 0 0 0
SMALL
GASTEIGER

@<TRIPOS>ATOM
      1 C         142.3287  139.4413  166.4080 C.3     1  UNL1        0.0899
      2 N         140.8741  139.1920  166.1400 N.3     1  UNL1       -0.2691
      3 C         140.3149  138.2886  165.0812 C.3     1  UNL1        0.0724
      4 C         138.8184  138.3406  165.1705 C.3     1  UNL1        0.0191
      5 C         138.4528  139.2762  166.2845 C.3     1  UNL1        0.0220
      6 C         139.7233  139.8024  166.8837 C.3     1  UNL1        0.0817
      7 C         139.8251  140.7692  168.0260 C.ar    1  UNL1        0.0114
      8 C         140.4169  142.1299  167.8065 C.ar    1  UNL1        0.0002
      9 C         140.5187  143.0967  168.9488 C.ar    1  UNL1        0.0204
     10 C         140.0286  142.7028  170.3107 C.ar    1  UNL1        0.0989
     11 N         139.4367  141.3421  170.5302 N.ar    1  UNL1       -0.2426
     12 C         139.3350  140.3753  169.3879 C.ar    1  UNL1        0.0959
@<TRIPOS>BOND
     1     1     2    1
     2     2     3    1
     3     3     4    1
     4     4     5    1
     5     5     6    1
     6     6     7    1
     7     7     8   ar
     8     8     9   ar
     9     9    10   ar
    10    10    11   ar
    11    11    12   ar
    12     6     2    1
    13    12     7   ar
@<TRIPOS>MOLECULE
*****
 12 13 0 0 0
SMALL
GASTEIGER

@<TRIPOS>ATOM
      1 C         140.3259  142.5731  166.1707 C.3     1  UNL1        0.0899
      2 N         139.5593  141.2859  166.2432 N.3     1  UNL1       -0.2691
      3 C         138.6628  140.7323  165.1756 C.3     1  UNL1        0.0724
      4 C         138.1040  139.4304  165.6686 C.3     1  UNL1        0.0191
      5 C         138.6553  139.1794  167.0408 C.3     1  UNL1        0.0220
      6 C         139.5547  140.3261  167.3959 C.3     1  UNL1        0.0817
      7 C         140.3159  140.4851  168.6787 C.ar    1  UNL1        0.0114
      8 C         141.7499  140.0524  168.7584 C.ar    1  UNL1        0.0002
      9 C         142.5110  140.2115  170.0411 C.ar    1  UNL1        0.0204
     10 C         141.8382  140.8032  171.2441 C.ar    1  UNL1        0.0989
     11 N         140.4042  141.2359  171.1643 N.ar    1  UNL1       -0.2426
     12 C         139.6431  141.0769  169.8816 C.ar    1  UNL1        0.0959
@<TRIPOS>BOND
     1     1     2    1
     2     2     3    1
     3     3     4    1
     4     4     5    1
     5     5     6    1
     6     6     7    1
     7     7     8   ar
     8     8     9   ar
     9     9    10   ar
    10    10    11   ar
    11    11    12   ar
    12     6     2    1
    13    12     7   ar
@<TRIPOS>MOLECULE
*****
 12 13 0 0 0
SMALL
GASTEIGER

@<TRIPOS>ATOM
      1 C         139.2303  140.3353  165.7610 C.3     1  UNL1        0.0899
      2 N         140.5874  139.8640  166.1923 N.3     1  UNL1       -0.2691
      3 C         141.4845  138.9388  165.4247 C.3     1  UNL1        0.0724
      4 C         142.7373  138.7381  166.2249 C.3     1  UNL1        0.0191
      5 C         142.6144  139.5392  167.4871 C.3     1  UNL1        0.0220
      6 C         141.2857  140.2351  167.4669 C.3     1  UNL1        0.0817
      7 C         140.7495  141.1426  168.5341 C.ar    1  UNL1        0.0114
      8 C         141.1194  142.5963  168.5380 C.ar    1  UNL1        0.0002
      9 C         140.5831  143.5038  169.6051 C.ar    1  UNL1        0.0204
     10 C         139.6770  142.9576  170.6684 C.ar    1  UNL1        0.0989
     11 N         139.3071  141.5040  170.6646 N.ar    1  UNL1       -0.2426
     12 C         139.8433  140.5965  169.5974 C.ar    1  UNL1        0.0959
@<TRIPOS>BOND
     1     1     2    1
     2     2     3    1
     3     3     4    1
     4     4     5    1
     5     5     6    1
     6     6     7    1
     7     7     8   ar
     8     8     9   ar
     9     9    10   ar
    10    10    11   ar
    11    11    12   ar
    12     6     2    1
    13    12     7   ar
@<TRIPOS>MOLECULE
*****
 12 13 0 0 0
SMALL
GASTEIGER

@<TRIPOS>ATOM
      1 C         139.5214  139.7126  162.3646 C.3     1  UNL1        0.0899
      2 N         139.1001  139.3101  163.7468 N.3     1  UNL1       -0.2691
      3 C         138.8865  137.9060  164.2296 C.3     1  UNL1        0.0724
      4 C         138.4728  137.9690  165.6701 C.3     1  UNL1        0.0191
      5 C         138.4307  139.4120  166.0775 C.3     1  UNL1        0.0220
      6 C         138.8184  140.2408  164.8889 C.3     1  UNL1        0.0817
      7 C         138.9085  141.7376  164.8493 C.ar    1  UNL1        0.0114
      8 C         137.7108  142.5510  164.4571 C.ar    1  UNL1        0.0002
      9 C         137.8009  144.0477  164.4175 C.ar    1  UNL1        0.0204
     10 C         139.0888  144.7311  164.7701 C.ar    1  UNL1        0.0989
     11 N         140.2865  143.9177  165.1623 N.ar    1  UNL1       -0.2426
     12 C         140.1964  142.4210  165.2019 C.ar    1  UNL1        0.0959
@<TRIPOS>BOND
     1     1     2    1
     2     2     3    1
     3     3     4    1
     4     4     5    1
     5     5     6    1
     6     6     7    1
     7     7     8   ar
     8     8     9   ar
     9     9    10   ar
    10    10    11   ar
    11    11    12   ar
    12     6     2    1
    13    12     7   ar
@<TRIPOS>MOLECULE
*****
 12 13 0 0 0
SMALL
GASTEIGER

@<TRIPOS>ATOM
      1 C         142.1477  139.4715  169.8967 C.3     1  UNL1        0.0899
      2 N         141.6651  140.8685  169.6409 N.3     1  UNL1       -0.2691
      3 C         142.0560  142.0921  170.4156 C.3     1  UNL1        0.0724
      4 C         141.3393  143.2671  169.8190 C.3     1  UNL1        0.0191
      5 C         140.5055  142.7696  168.6757 C.3     1  UNL1        0.0220
      6 C         140.7068  141.2873  168.5656 C.3     1  UNL1        0.0817
      7 C         140.0629  140.3825  167.5571 C.ar    1  UNL1        0.0114
      8 C         138.7738  139.6898  167.8862 C.ar    1  UNL1        0.0002
      9 C         138.1299  138.7851  166.8777 C.ar    1  UNL1        0.0204
     10 C         138.7752  138.5731  165.5403 C.ar    1  UNL1        0.0989
     11 N         140.0643  139.2659  165.2113 N.ar    1  UNL1       -0.2426
     12 C         140.7082  140.1705  166.2197 C.ar    1  UNL1        0.0959
@<TRIPOS>BOND
     1     1     2    1
     2     2     3    1
     3     3     4    1
     4     4     5    1
     5     5     6    1
     6     6     7    1
     7     7     8   ar
     8     8     9   ar
     9     9    10   ar
    10    10    11   ar
    11    11    12   ar
    12     6     2    1
    13    12     7   ar
@<TRIPOS>MOLECULE
*****
 12 13 0 0 0
SMALL
GASTEIGER

@<TRIPOS>ATOM
      1 C         139.8393  142.5445  170.3343 C.3     1  UNL1        0.0899
      2 N         141.2209  142.4510  169.7578 N.3     1  UNL1       -0.2691
      3 C         142.5054  142.6005  170.5179 C.3     1  UNL1        0.0724
      4 C         143.6390  142.4334  169.5499 C.3     1  UNL1        0.0191
      5 C         143.0551  142.1807  168.1915 C.3     1  UNL1        0.0220
      6 C         141.5606  142.1916  168.3200 C.3     1  UNL1        0.0817
      7 C         140.5784  141.9801  167.2062 C.ar    1  UNL1        0.0114
      8 C         140.2545  143.1049  166.2682 C.ar    1  UNL1        0.0002
      9 C         139.2723  142.8934  165.1544 C.ar    1  UNL1        0.0204
     10 C         138.6140  141.5571  164.9787 C.ar    1  UNL1        0.0989
     11 N         138.9378  140.4323  165.9166 N.ar    1  UNL1       -0.2426
     12 C         139.9200  140.6438  167.0304 C.ar    1  UNL1        0.0959
@<TRIPOS>BOND
     1     1     2    1
     2     2     3    1
     3     3     4    1
     4     4     5    1
     5     5     6    1
     6     6     7    1
     7     7     8   ar
     8     8     9   ar
     9     9    10   ar
    10    10    11   ar
    11    11    12   ar
    12     6     2    1
    13    12     7   ar
@<TRIPOS>MOLECULE
*****
 12 13 0 0 0
SMALL
GASTEIGER

@<TRIPOS>ATOM
      1 C         139.6859  142.0927  170.2036 C.3     1  UNL1        0.0899
      2 N         140.8104  141.1341  169.9452 N.3     1  UNL1       -0.2691
      3 C         141.9408  140.8279  170.8825 C.3     1  UNL1        0.0724
      4 C         142.8310  139.8181  170.2208 C.3     1  UNL1        0.0191
      5 C         142.2508  139.5002  168.8746 C.3     1  UNL1        0.0220
      6 C         141.0020  140.3136  168.7043 C.3     1  UNL1        0.0817
      7 C         140.1027  140.3074  167.5037 C.ar    1  UNL1        0.0114
      8 C         138.9672  139.3307  167.4222 C.ar    1  UNL1        0.0002
      9 C         138.0679  139.3246  166.2217 C.ar    1  UNL1        0.0204
     10 C         138.3042  140.2951  165.1027 C.ar    1  UNL1        0.0989
     11 N         139.4396  141.2718  165.1842 N.ar    1  UNL1       -0.2426
     12 C         140.3389  141.2780  166.3847 C.ar    1  UNL1        0.0959
@<TRIPOS>BOND
     1     1     2    1
     2     2     3    1
     3     3     4    1
     4     4     5    1
     5     5     6    1
     6     6     7    1
     7     7     8   ar
     8     8     9   ar
     9     9    10   ar
    10    10    11   ar
    11    11    12   ar
    12     6     2    1
    13    12     7   ar
@<TRIPOS>MOLECULE
*****
 12 13 0 0 0
SMALL
GASTEIGER

@<TRIPOS>ATOM
      1 C         139.9311  141.7034  162.6053 C.3     1  UNL1        0.0899
      2 N         139.3130  142.7448  163.4904 N.3     1  UNL1       -0.2691
      3 C         137.8525  143.0765  163.5742 C.3     1  UNL1        0.0724
      4 C         137.6836  144.1741  164.5826 C.3     1  UNL1        0.0191
      5 C         139.0397  144.5206  165.1220 C.3     1  UNL1        0.0220
      6 C         140.0467  143.6373  164.4469 C.3     1  UNL1        0.0817
      7 C         141.5275  143.6451  164.6864 C.ar    1  UNL1        0.0114
      8 C         142.3940  144.6544  163.9934 C.ar    1  UNL1        0.0002
      9 C         143.8747  144.6622  164.2329 C.ar    1  UNL1        0.0204
     10 C         144.4889  143.6607  165.1655 C.ar    1  UNL1        0.0989
     11 N         143.6224  142.6513  165.8585 N.ar    1  UNL1       -0.2426
     12 C         142.1417  142.6435  165.6190 C.ar    1  UNL1        0.0959
@<TRIPOS>BOND
     1     1     2    1
     2     2     3    1
     3     3     4    1
     4     4     5    1
     5     5     6    1
     6     6     7    1
     7     7     8   ar
     8     8     9   ar
     9     9    10   ar
    10    10    11   ar
    11    11    12   ar
    12     6     2    1
    13    12     7   ar
@<TRIPOS>MOLECULE
*****
 12 13 0 0 0
SMALL
GASTEIGER

@<TRIPOS>ATOM
      1 C         139.9005  140.9720  163.9105 C.3     1  UNL1        0.0899
      2 N         139.3327  142.3410  164.1415 N.3     1  UNL1       -0.2691
      3 C         137.9334  142.6519  164.5835 C.3     1  UNL1        0.0724
      4 C         137.8002  144.1425  164.6863 C.3     1  UNL1        0.0191
      5 C         139.1172  144.7527  164.3078 C.3     1  UNL1        0.0220
      6 C         140.0643  143.6393  163.9711 C.3     1  UNL1        0.0817
      7 C         141.4923  143.7966  163.5397 C.ar    1  UNL1        0.0114
      8 C         142.6015  143.5883  164.5277 C.ar    1  UNL1        0.0002
      9 C         144.0295  143.7456  164.0963 C.ar    1  UNL1        0.0204
     10 C         144.3482  144.1113  162.6769 C.ar    1  UNL1        0.0989
     11 N         143.2390  144.3196  161.6889 N.ar    1  UNL1       -0.2426
     12 C         141.8111  144.1623  162.1203 C.ar    1  UNL1        0.0959
@<TRIPOS>BOND
     1     1     2    1
     2     2     3    1
     3     3     4    1
     4     4     5    1
     5     5     6    1
     6     6     7    1
     7     7     8   ar
     8     8     9   ar
     9     9    10   ar
    10    10    11   ar
    11    11    12   ar
    12     6     2    1
    13    12     7   ar
