@<TRIPOS>MOLECULE
*****
 33 36 0 0 0
SMALL
GASTEIGER

@<TRIPOS>ATOM
      1 C         137.8496  142.7653  162.3605 C.2     1  UNL1        0.2301
      2 O         138.1197  144.2408  162.3541 O.2     1  UNL1       -0.2745
      3 N         138.0819  141.9550  161.1197 N.am    1  UNL1       -0.2792
      4 C         138.5843  142.6201  159.8727 C.3     1  UNL1        0.0951
      5 C         138.8166  141.8098  158.6319 C.3     1  UNL1        0.0410
      6 C         138.5465  140.3344  158.6383 C.3     1  UNL1        0.0724
      7 C         138.0441  139.6692  159.8854 C.3     1  UNL1        0.0410
      8 C         137.8118  140.4795  161.1261 C.3     1  UNL1        0.0951
      9 N         138.7788  139.5240  157.3975 N.pl3   1  UNL1       -0.3339
     10 H         138.1358  139.5679  156.6534 H       1  UNL1        0.1468
     11 C         139.9908  138.6468  157.2906 C.ar    1  UNL1        0.0469
     12 C         141.2314  138.9844  158.0632 C.ar    1  UNL1        0.0144
     13 C         142.4435  138.1072  157.9564 C.ar    1  UNL1        0.0036
     14 C         142.4150  136.8924  157.0769 C.ar    1  UNL1        0.0297
     15 C         141.1743  136.5549  156.3043 C.ar    1  UNL1        0.1414
     16 F         141.1457  135.3401  155.4248 F       1  UNL1       -0.2041
     17 C         139.9623  137.4321  156.4111 C.ar    1  UNL1        0.0439
     18 C         137.3472  142.1001  163.6076 C.3     1  UNL1        0.1116
     19 C         140.2654  140.5302  166.6521 C.ar    1  UNL1       -0.0062
     20 C         139.0769  139.7047  166.2571 C.ar    1  UNL1       -0.0032
     21 C         138.1041  140.2280  165.2423 C.ar    1  UNL1       -0.0041
     22 C         138.3199  141.5768  164.6224 C.ar    1  UNL1       -0.0131
     23 C         139.5084  142.4023  165.0174 C.ar    1  UNL1       -0.0041
     24 C         140.4812  141.8790  166.0323 C.ar    1  UNL1       -0.0032
     25 C         141.2382  140.0069  167.6670 C.3     1  UNL1        0.0992
     26 C         144.7512  142.9399  170.1280 C.3     1  UNL1        0.0186
     27 C         143.3849  142.3233  170.0702 C.3     1  UNL1        0.0703
     28 C         142.9946  141.4734  168.8975 C.3     1  UNL1        0.0882
     29 N         141.6284  140.8569  168.8397 N.3     1  UNL1       -0.2666
     30 C         140.6525  141.0903  169.9546 C.3     1  UNL1        0.0897
     31 C         141.0428  141.9402  171.1273 C.3     1  UNL1        0.0861
     32 N         142.4090  142.5568  171.1851 N.3     1  UNL1       -0.2963
     33 H         142.8502  142.2153  172.0390 H       1  UNL1        0.1233
@<TRIPOS>BOND
     1    27    26    1
     2    27    28    1
     3    28    29    1
     4    29    25    1
     5    25    19    1
     6    19    20   ar
     7    20    21   ar
     8    21    22   ar
     9    22    18    1
    10    18     1    1
    11     1     2    2
    12     1     3   am
    13     3     4    1
    14     4     5    1
    15     5     6    1
    16     6     9    1
    17     9    11    1
    18    11    12   ar
    19    12    13   ar
    20    13    14   ar
    21    14    15   ar
    22    15    16    1
    23    15    17   ar
    24     6     7    1
    25     7     8    1
    26    22    23   ar
    27    23    24   ar
    28    29    30    1
    29    30    31    1
    30    31    32    1
    31    32    27    1
    32    24    19   ar
    33     8     3    1
    34    17    11   ar
    35     9    10    1
    36    32    33    1
@<TRIPOS>MOLECULE
*****
 33 36 0 0 0
SMALL
GASTEIGER

@<TRIPOS>ATOM
      1 C         139.0067  138.9910  161.5967 C.2     1  UNL1        0.2301
      2 O         137.7989  138.1052  161.5151 O.2     1  UNL1       -0.2745
      3 N         139.6992  139.1957  162.9114 N.am    1  UNL1       -0.2792
      4 C         139.1840  138.5147  164.1445 C.3     1  UNL1        0.0951
      5 C         139.8765  138.7194  165.4593 C.3     1  UNL1        0.0410
      6 C         141.0843  139.6052  165.5408 C.3     1  UNL1        0.0724
      7 C         141.5996  140.2862  164.3076 C.3     1  UNL1        0.0410
      8 C         140.9071  140.0815  162.9929 C.3     1  UNL1        0.0951
      9 N         141.7769  139.8099  166.8555 N.pl3   1  UNL1       -0.3339
     10 H         142.6681  139.4206  167.0083 H       1  UNL1        0.1468
     11 C         141.1114  140.6077  167.9375 C.ar    1  UNL1        0.0469
     12 C         141.6403  141.9628  168.3032 C.ar    1  UNL1        0.0144
     13 C         140.9749  142.7607  169.3853 C.ar    1  UNL1        0.0036
     14 C         139.7806  142.2033  170.1015 C.ar    1  UNL1        0.0297
     15 C         139.2518  140.8480  169.7358 C.ar    1  UNL1        0.1414
     16 F         138.0575  140.2906  170.4521 F       1  UNL1       -0.2041
     17 C         139.9172  140.0503  168.6538 C.ar    1  UNL1        0.0439
     18 C         139.5220  139.6720  160.3635 C.3     1  UNL1        0.1116
     19 C         142.0346  137.3845  157.4133 C.ar    1  UNL1       -0.0062
     20 C         142.6316  137.8414  158.7114 C.ar    1  UNL1       -0.0032
     21 C         141.7940  138.6039  159.6948 C.ar    1  UNL1       -0.0041
     22 C         140.3596  138.9095  159.3801 C.ar    1  UNL1       -0.0131
     23 C         139.7627  138.4526  158.0820 C.ar    1  UNL1       -0.0041
     24 C         140.6002  137.6901  157.0986 C.ar    1  UNL1       -0.0032
     25 C         142.8722  136.6220  156.4298 C.3     1  UNL1        0.0992
     26 C         144.6594  131.9025  157.6677 C.3     1  UNL1        0.0186
     27 C         143.6542  132.7685  156.9680 C.3     1  UNL1        0.0703
     28 C         143.7658  134.2622  157.0488 C.3     1  UNL1        0.0882
     29 N         142.7606  135.1283  156.3490 N.3     1  UNL1       -0.2666
     30 C         141.6440  134.5007  155.5686 C.3     1  UNL1        0.0897
     31 C         141.5324  133.0071  155.4878 C.3     1  UNL1        0.0861
     32 N         142.5376  132.1410  156.1875 N.3     1  UNL1       -0.2963
     33 H         142.9704  131.5559  155.4728 H       1  UNL1        0.1233
@<TRIPOS>BOND
     1    27    26    1
     2    27    28    1
     3    28    29    1
     4    29    25    1
     5    25    19    1
     6    19    20   ar
     7    20    21   ar
     8    21    22   ar
     9    22    18    1
    10    18     1    1
    11     1     2    2
    12     1     3   am
    13     3     4    1
    14     4     5    1
    15     5     6    1
    16     6     9    1
    17     9    11    1
    18    11    12   ar
    19    12    13   ar
    20    13    14   ar
    21    14    15   ar
    22    15    16    1
    23    15    17   ar
    24     6     7    1
    25     7     8    1
    26    22    23   ar
    27    23    24   ar
    28    29    30    1
    29    30    31    1
    30    31    32    1
    31    32    27    1
    32    24    19   ar
    33     8     3    1
    34    17    11   ar
    35     9    10    1
    36    32    33    1
@<TRIPOS>MOLECULE
*****
 33 36 0 0 0
SMALL
GASTEIGER

@<TRIPOS>ATOM
      1 C         140.1901  145.3926  161.6185 C.2     1  UNL1        0.2301
      2 O         139.2666  146.5744  161.6394 O.2     1  UNL1       -0.2745
      3 N         140.2834  144.4924  162.8147 N.am    1  UNL1       -0.2792
      4 C         139.4531  144.7738  164.0318 C.3     1  UNL1        0.0951
      5 C         139.5464  143.8735  165.2279 C.3     1  UNL1        0.0410
      6 C         140.4700  142.6918  165.2070 C.3     1  UNL1        0.0724
      7 C         141.3004  142.4103  163.9899 C.3     1  UNL1        0.0410
      8 C         141.2071  143.3106  162.7937 C.3     1  UNL1        0.0951
      9 N         140.5633  141.7916  166.4032 N.pl3   1  UNL1       -0.3339
     10 H         140.2606  140.8569  166.3406 H       1  UNL1        0.1468
     11 C         141.1178  142.3154  167.6947 C.ar    1  UNL1        0.0469
     12 C         140.2450  143.1149  168.6161 C.ar    1  UNL1        0.0144
     13 C         140.7995  143.6388  169.9077 C.ar    1  UNL1        0.0036
     14 C         142.2267  143.3632  170.2778 C.ar    1  UNL1        0.0297
     15 C         143.0995  142.5636  169.3563 C.ar    1  UNL1        0.1414
     16 F         144.5268  142.2880  169.7265 F       1  UNL1       -0.2041
     17 C         142.5451  142.0398  168.0648 C.ar    1  UNL1        0.0439
     18 C         141.0205  145.1112  160.4014 C.3     1  UNL1        0.1116
     19 C         139.0404  143.7849  156.5843 C.ar    1  UNL1       -0.0062
     20 C         138.9126  142.9509  157.8245 C.ar    1  UNL1       -0.0032
     21 C         139.5727  143.3929  159.0969 C.ar    1  UNL1       -0.0041
     22 C         140.3605  144.6691  159.1290 C.ar    1  UNL1       -0.0131
     23 C         140.4882  145.5030  157.8888 C.ar    1  UNL1       -0.0041
     24 C         139.8281  145.0610  156.6165 C.ar    1  UNL1       -0.0032
     25 C         138.3803  143.3428  155.3119 C.3     1  UNL1        0.0992
     26 C         133.9510  140.6753  155.8272 C.3     1  UNL1        0.0186
     27 C         135.4197  140.7085  155.5243 C.3     1  UNL1        0.0703
     28 C         136.1657  142.0090  155.5696 C.3     1  UNL1        0.0882
     29 N         137.6344  142.0422  155.2666 N.3     1  UNL1       -0.2666
     30 C         138.3571  140.7748  154.9184 C.3     1  UNL1        0.0897
     31 C         137.6112  139.4743  154.8731 C.3     1  UNL1        0.0861
     32 N         136.1425  139.4411  155.1760 N.3     1  UNL1       -0.2963
     33 H         136.0187  138.8055  155.9641 H       1  UNL1        0.1233
@<TRIPOS>BOND
     1    27    26    1
     2    27    28    1
     3    28    29    1
     4    29    25    1
     5    25    19    1
     6    19    20   ar
     7    20    21   ar
     8    21    22   ar
     9    22    18    1
    10    18     1    1
    11     1     2    2
    12     1     3   am
    13     3     4    1
    14     4     5    1
    15     5     6    1
    16     6     9    1
    17     9    11    1
    18    11    12   ar
    19    12    13   ar
    20    13    14   ar
    21    14    15   ar
    22    15    16    1
    23    15    17   ar
    24     6     7    1
    25     7     8    1
    26    22    23   ar
    27    23    24   ar
    28    29    30    1
    29    30    31    1
    30    31    32    1
    31    32    27    1
    32    24    19   ar
    33     8     3    1
    34    17    11   ar
    35     9    10    1
    36    32    33    1
@<TRIPOS>MOLECULE
*****
 33 36 0 0 0
SMALL
GASTEIGER

@<TRIPOS>ATOM
      1 C         139.3710  138.4696  162.0611 C.2     1  UNL1        0.2301
      2 O         137.9381  138.8488  161.8310 O.2     1  UNL1       -0.2745
      3 N         140.3063  138.3303  160.8967 N.am    1  UNL1       -0.2792
      4 C         139.8087  138.5703  159.5022 C.3     1  UNL1        0.0951
      5 C         140.7440  138.4311  158.3378 C.3     1  UNL1        0.0410
      6 C         142.1769  138.0519  158.5679 C.3     1  UNL1        0.0724
      7 C         142.6745  137.8119  159.9625 C.3     1  UNL1        0.0410
      8 C         141.7392  137.9511  161.1269 C.3     1  UNL1        0.0951
      9 N         143.1122  137.9126  157.4035 N.pl3   1  UNL1       -0.3339
     10 H         143.7923  138.6037  157.2331 H       1  UNL1        0.1468
     11 C         143.0112  136.7205  156.4988 C.ar    1  UNL1        0.0469
     12 C         143.2758  135.3458  157.0373 C.ar    1  UNL1        0.0144
     13 C         143.1748  134.1536  156.1325 C.ar    1  UNL1        0.0036
     14 C         142.8092  134.3362  154.6893 C.ar    1  UNL1        0.0297
     15 C         142.5445  135.7110  154.1508 C.ar    1  UNL1        0.1414
     16 F         142.1788  135.8936  152.7075 F       1  UNL1       -0.2041
     17 C         142.6455  136.9031  155.0555 C.ar    1  UNL1        0.0439
     18 C         139.8687  138.2296  163.4557 C.3     1  UNL1        0.1116
     19 C         140.0908  141.6398  166.3834 C.ar    1  UNL1       -0.0062
     20 C         140.4628  141.8591  164.9469 C.ar    1  UNL1       -0.0032
     21 C         140.3888  140.7224  163.9710 C.ar    1  UNL1       -0.0041
     22 C         139.9427  139.3663  164.4316 C.ar    1  UNL1       -0.0131
     23 C         139.5707  139.1470  165.8681 C.ar    1  UNL1       -0.0041
     24 C         139.6447  140.2837  166.8439 C.ar    1  UNL1       -0.0032
     25 C         140.1648  142.7765  167.3593 C.3     1  UNL1        0.0992
     26 C         144.5558  142.6080  170.1325 C.3     1  UNL1        0.0186
     27 C         143.0609  142.5086  170.0594 C.3     1  UNL1        0.0703
     28 C         142.3603  142.6923  168.7459 C.3     1  UNL1        0.0882
     29 N         140.8654  142.5928  168.6729 N.3     1  UNL1       -0.2666
     30 C         140.0711  142.3097  169.9134 C.3     1  UNL1        0.0897
     31 C         140.7717  142.1260  171.2269 C.3     1  UNL1        0.0861
     32 N         142.2666  142.2254  171.2999 N.3     1  UNL1       -0.2963
     33 H         142.6032  141.3359  171.6685 H       1  UNL1        0.1233
@<TRIPOS>BOND
     1    27    26    1
     2    27    28    1
     3    28    29    1
     4    29    25    1
     5    25    19    1
     6    19    20   ar
     7    20    21   ar
     8    21    22   ar
     9    22    18    1
    10    18     1    1
    11     1     2    2
    12     1     3   am
    13     3     4    1
    14     4     5    1
    15     5     6    1
    16     6     9    1
    17     9    11    1
    18    11    12   ar
    19    12    13   ar
    20    13    14   ar
    21    14    15   ar
    22    15    16    1
    23    15    17   ar
    24     6     7    1
    25     7     8    1
    26    22    23   ar
    27    23    24   ar
    28    29    30    1
    29    30    31    1
    30    31    32    1
    31    32    27    1
    32    24    19   ar
    33     8     3    1
    34    17    11   ar
    35     9    10    1
    36    32    33    1
@<TRIPOS>MOLECULE
*****
 33 36 0 0 0
SMALL
GASTEIGER

@<TRIPOS>ATOM
      1 C         143.3052  139.4993  158.3715 C.2     1  UNL1        0.2301
      2 O         144.5861  140.1920  158.0118 O.2     1  UNL1       -0.2745
      3 N         143.0397  139.1050  159.7942 N.am    1  UNL1       -0.2792
      4 C         144.0550  139.4034  160.8572 C.3     1  UNL1        0.0951
      5 C         143.7895  139.0092  162.2799 C.3     1  UNL1        0.0410
      6 C         142.5086  138.3165  162.6396 C.3     1  UNL1        0.0724
      7 C         141.4932  138.0180  161.5766 C.3     1  UNL1        0.0410
      8 C         141.7587  138.4122  160.1539 C.3     1  UNL1        0.0951
      9 N         142.2431  137.9222  164.0623 N.pl3   1  UNL1       -0.3339
     10 H         142.8901  137.3596  164.5461 H       1  UNL1        0.1468
     11 C         140.9918  138.3851  164.7478 C.ar    1  UNL1        0.0469
     12 C         139.7978  137.4802  164.8204 C.ar    1  UNL1        0.0144
     13 C         138.5464  137.9431  165.5060 C.ar    1  UNL1        0.0036
     14 C         138.4892  139.3110  166.1188 C.ar    1  UNL1        0.0297
     15 C         139.6833  140.2160  166.0462 C.ar    1  UNL1        0.1414
     16 F         139.6260  141.5838  166.6590 F       1  UNL1       -0.2041
     17 C         140.9345  139.7530  165.3606 C.ar    1  UNL1        0.0439
     18 C         142.2898  139.2008  157.3085 C.3     1  UNL1        0.1116
     19 C         142.5135  135.3426  155.0032 C.ar    1  UNL1       -0.0062
     20 C         143.7240  136.2217  155.1134 C.ar    1  UNL1       -0.0032
     21 C         143.6494  137.5078  155.8818 C.ar    1  UNL1       -0.0041
     22 C         142.3644  137.9147  156.5401 C.ar    1  UNL1       -0.0131
     23 C         141.1541  137.0356  156.4299 C.ar    1  UNL1       -0.0041
     24 C         141.2286  135.7495  155.6615 C.ar    1  UNL1       -0.0032
     25 C         142.5881  134.0565  154.2348 C.3     1  UNL1        0.0992
     26 C         145.4900  131.9703  158.0066 C.3     1  UNL1        0.0186
     27 C         144.7869  131.8433  156.6878 C.3     1  UNL1        0.0703
     28 C         144.0391  133.0134  156.1207 C.3     1  UNL1        0.0882
     29 N         143.3359  132.8863  154.8019 N.3     1  UNL1       -0.2666
     30 C         143.3806  131.5891  154.0500 C.3     1  UNL1        0.0897
     31 C         144.1283  130.4190  154.6171 C.3     1  UNL1        0.0861
     32 N         144.8315  130.5461  155.9359 N.3     1  UNL1       -0.2963
     33 H         145.8155  130.3378  155.7663 H       1  UNL1        0.1233
@<TRIPOS>BOND
     1    27    26    1
     2    27    28    1
     3    28    29    1
     4    29    25    1
     5    25    19    1
     6    19    20   ar
     7    20    21   ar
     8    21    22   ar
     9    22    18    1
    10    18     1    1
    11     1     2    2
    12     1     3   am
    13     3     4    1
    14     4     5    1
    15     5     6    1
    16     6     9    1
    17     9    11    1
    18    11    12   ar
    19    12    13   ar
    20    13    14   ar
    21    14    15   ar
    22    15    16    1
    23    15    17   ar
    24     6     7    1
    25     7     8    1
    26    22    23   ar
    27    23    24   ar
    28    29    30    1
    29    30    31    1
    30    31    32    1
    31    32    27    1
    32    24    19   ar
    33     8     3    1
    34    17    11   ar
    35     9    10    1
    36    32    33    1
@<TRIPOS>MOLECULE
*****
 33 36 0 0 0
SMALL
GASTEIGER

@<TRIPOS>ATOM
      1 C         142.0237  138.1764  162.6950 C.2     1  UNL1        0.2301
      2 O         141.2547  137.3045  161.7472 O.2     1  UNL1       -0.2745
      3 N         141.3894  138.6354  163.9745 N.am    1  UNL1       -0.2792
      4 C         139.9860  138.2224  164.3061 C.3     1  UNL1        0.0951
      5 C         139.3517  138.6813  165.5856 C.3     1  UNL1        0.0410
      6 C         140.1207  139.5533  166.5334 C.3     1  UNL1        0.0724
      7 C         141.5241  139.9663  166.2017 C.3     1  UNL1        0.0410
      8 C         142.1585  139.5073  164.9223 C.3     1  UNL1        0.0951
      9 N         139.4863  140.0122  167.8128 N.pl3   1  UNL1       -0.3339
     10 H         138.5299  139.8449  167.9758 H       1  UNL1        0.1468
     11 C         140.3091  140.7261  168.8440 C.ar    1  UNL1        0.0469
     12 C         141.1781  139.9435  169.7833 C.ar    1  UNL1        0.0144
     13 C         142.0009  140.6574  170.8145 C.ar    1  UNL1        0.0036
     14 C         141.9548  142.1539  170.9063 C.ar    1  UNL1        0.0297
     15 C         141.0858  142.9365  169.9669 C.ar    1  UNL1        0.1414
     16 F         141.0396  144.4330  170.0586 F       1  UNL1       -0.2041
     17 C         140.2630  142.2226  168.9357 C.ar    1  UNL1        0.0439
     18 C         143.4272  138.5894  162.3634 C.3     1  UNL1        0.1116
     19 C         144.1682  141.7029  159.2001 C.ar    1  UNL1       -0.0062
     20 C         144.2775  142.0672  160.6511 C.ar    1  UNL1       -0.0032
     21 C         144.0305  141.0294  161.7056 C.ar    1  UNL1       -0.0041
     22 C         143.6742  139.6273  161.3090 C.ar    1  UNL1       -0.0131
     23 C         143.5649  139.2630  159.8580 C.ar    1  UNL1       -0.0041
     24 C         143.8119  140.3009  158.8035 C.ar    1  UNL1       -0.0032
     25 C         144.4153  142.7408  158.1456 C.3     1  UNL1        0.0992
     26 C         148.8481  141.8059  155.6008 C.3     1  UNL1        0.0186
     27 C         147.3513  141.9028  155.6103 C.3     1  UNL1        0.0703
     28 C         146.6317  142.2733  156.8732 C.3     1  UNL1        0.0882
     29 N         145.1348  142.3703  156.8826 N.3     1  UNL1       -0.2666
     30 C         144.3576  142.0968  155.6292 C.3     1  UNL1        0.0897
     31 C         145.0772  141.7264  154.3664 C.3     1  UNL1        0.0861
     32 N         146.5740  141.6294  154.3569 N.3     1  UNL1       -0.2963
     33 H         146.9074  142.2890  153.6539 H       1  UNL1        0.1233
@<TRIPOS>BOND
     1    27    26    1
     2    27    28    1
     3    28    29    1
     4    29    25    1
     5    25    19    1
     6    19    20   ar
     7    20    21   ar
     8    21    22   ar
     9    22    18    1
    10    18     1    1
    11     1     2    2
    12     1     3   am
    13     3     4    1
    14     4     5    1
    15     5     6    1
    16     6     9    1
    17     9    11    1
    18    11    12   ar
    19    12    13   ar
    20    13    14   ar
    21    14    15   ar
    22    15    16    1
    23    15    17   ar
    24     6     7    1
    25     7     8    1
    26    22    23   ar
    27    23    24   ar
    28    29    30    1
    29    30    31    1
    30    31    32    1
    31    32    27    1
    32    24    19   ar
    33     8     3    1
    34    17    11   ar
    35     9    10    1
    36    32    33    1
@<TRIPOS>MOLECULE
*****
 33 36 0 0 0
SMALL
GASTEIGER

@<TRIPOS>ATOM
      1 C         140.2248  140.6435  161.6918 C.2     1  UNL1        0.2301
      2 O         140.6650  141.9276  161.0536 O.2     1  UNL1       -0.2745
      3 N         140.4122  140.4355  163.1654 N.am    1  UNL1       -0.2792
      4 C         141.0397  141.5116  164.0009 C.3     1  UNL1        0.0951
      5 C         141.2271  141.3037  165.4746 C.3     1  UNL1        0.0410
      6 C         140.7869  140.0196  166.1127 C.3     1  UNL1        0.0724
      7 C         140.1593  138.9434  165.2772 C.3     1  UNL1        0.0410
      8 C         139.9720  139.1513  163.8036 C.3     1  UNL1        0.0951
      9 N         140.9743  139.8116  167.5864 N.pl3   1  UNL1       -0.3339
     10 H         140.8160  138.9242  167.9823 H       1  UNL1        0.1468
     11 C         141.4028  140.9556  168.4568 C.ar    1  UNL1        0.0469
     12 C         140.3844  141.9298  168.9701 C.ar    1  UNL1        0.0144
     13 C         140.8129  143.0739  169.8406 C.ar    1  UNL1        0.0036
     14 C         142.2599  143.2436  170.1976 C.ar    1  UNL1        0.0297
     15 C         143.2784  142.2693  169.6841 C.ar    1  UNL1        0.1414
     16 F         144.7253  142.4390  170.0411 F       1  UNL1       -0.2041
     17 C         142.8498  141.1253  168.8138 C.ar    1  UNL1        0.0439
     18 C         139.5972  139.5673  160.8563 C.3     1  UNL1        0.1116
     19 C         142.0102  137.4959  157.6725 C.ar    1  UNL1       -0.0062
     20 C         140.5956  137.9087  157.3919 C.ar    1  UNL1       -0.0032
     21 C         139.7913  138.5992  158.4531 C.ar    1  UNL1       -0.0041
     22 C         140.4016  138.8768  159.7950 C.ar    1  UNL1       -0.0131
     23 C         141.8161  138.4641  160.0756 C.ar    1  UNL1       -0.0041
     24 C         142.6204  137.7736  159.0143 C.ar    1  UNL1       -0.0032
     25 C         142.8146  136.8054  156.6112 C.3     1  UNL1        0.0992
     26 C         144.6205  132.0497  157.6702 C.3     1  UNL1        0.0186
     27 C         143.6280  132.9387  156.9814 C.3     1  UNL1        0.0703
     28 C         143.7175  134.4275  157.1406 C.3     1  UNL1        0.0882
     29 N         142.7250  135.3166  156.4519 N.3     1  UNL1       -0.2666
     30 C         141.6428  134.7168  155.6038 C.3     1  UNL1        0.0897
     31 C         141.5532  133.2280  155.4446 C.3     1  UNL1        0.0861
     32 N         142.5458  132.3390  156.1334 N.3     1  UNL1       -0.2963
     33 H         143.0095  131.7957  155.4052 H       1  UNL1        0.1233
@<TRIPOS>BOND
     1    27    26    1
     2    27    28    1
     3    28    29    1
     4    29    25    1
     5    25    19    1
     6    19    20   ar
     7    20    21   ar
     8    21    22   ar
     9    22    18    1
    10    18     1    1
    11     1     2    2
    12     1     3   am
    13     3     4    1
    14     4     5    1
    15     5     6    1
    16     6     9    1
    17     9    11    1
    18    11    12   ar
    19    12    13   ar
    20    13    14   ar
    21    14    15   ar
    22    15    16    1
    23    15    17   ar
    24     6     7    1
    25     7     8    1
    26    22    23   ar
    27    23    24   ar
    28    29    30    1
    29    30    31    1
    30    31    32    1
    31    32    27    1
    32    24    19   ar
    33     8     3    1
    34    17    11   ar
    35     9    10    1
    36    32    33    1
@<TRIPOS>MOLECULE
*****
 33 36 0 0 0
SMALL
GASTEIGER

@<TRIPOS>ATOM
      1 C         138.3402  143.2522  162.0224 C.2     1  UNL1        0.2301
      2 O         138.9653  144.6156  162.0365 O.2     1  UNL1       -0.2745
      3 N         138.4171  142.4046  160.7872 N.am    1  UNL1       -0.2792
      4 C         139.1190  142.9205  159.5660 C.3     1  UNL1        0.0951
      5 C         139.1958  142.0729  158.3308 C.3     1  UNL1        0.0410
      6 C         138.5707  140.7095  158.3167 C.3     1  UNL1        0.0724
      7 C         137.8688  140.1935  159.5379 C.3     1  UNL1        0.0410
      8 C         137.7920  141.0411  160.7731 C.3     1  UNL1        0.0951
      9 N         138.6476  139.8619  157.0815 N.pl3   1  UNL1       -0.3339
     10 H         139.3804  139.2133  156.9744 H       1  UNL1        0.1468
     11 C         137.6079  140.0026  156.0096 C.ar    1  UNL1        0.0469
     12 C         137.8073  139.3382  154.6796 C.ar    1  UNL1        0.0144
     13 C         136.7675  139.4789  153.6075 C.ar    1  UNL1        0.0036
     14 C         135.5284  140.2839  153.8655 C.ar    1  UNL1        0.0297
     15 C         135.3291  140.9483  155.1956 C.ar    1  UNL1        0.1414
     16 F         134.0899  141.7533  155.4535 F       1  UNL1       -0.2041
     17 C         136.3688  140.8076  156.2675 C.ar    1  UNL1        0.0439
     18 C         137.6383  142.7362  163.2435 C.3     1  UNL1        0.1116
     19 C         139.9973  140.7690  166.5321 C.ar    1  UNL1       -0.0062
     20 C         140.0851  142.2529  166.3305 C.ar    1  UNL1       -0.0032
     21 C         139.2988  142.9086  165.2343 C.ar    1  UNL1       -0.0041
     22 C         138.4246  142.0805  164.3397 C.ar    1  UNL1       -0.0131
     23 C         138.3369  140.5967  164.5414 C.ar    1  UNL1       -0.0041
     24 C         139.1232  139.9410  165.6376 C.ar    1  UNL1       -0.0032
     25 C         140.7837  140.1133  167.6284 C.3     1  UNL1        0.0992
     26 C         144.5716  142.7585  170.0063 C.3     1  UNL1        0.0186
     27 C         143.1614  142.2477  169.9822 C.3     1  UNL1        0.0703
     28 C         142.6776  141.4359  168.8174 C.3     1  UNL1        0.0882
     29 N         141.2675  140.9252  168.7932 N.3     1  UNL1       -0.2666
     30 C         140.3411  141.2263  169.9339 C.3     1  UNL1        0.0897
     31 C         140.8249  142.0381  171.0987 C.3     1  UNL1        0.0861
     32 N         142.2351  142.5489  171.1228 N.3     1  UNL1       -0.2963
     33 H         142.6709  142.1705  171.9638 H       1  UNL1        0.1233
@<TRIPOS>BOND
     1    27    26    1
     2    27    28    1
     3    28    29    1
     4    29    25    1
     5    25    19    1
     6    19    20   ar
     7    20    21   ar
     8    21    22   ar
     9    22    18    1
    10    18     1    1
    11     1     2    2
    12     1     3   am
    13     3     4    1
    14     4     5    1
    15     5     6    1
    16     6     9    1
    17     9    11    1
    18    11    12   ar
    19    12    13   ar
    20    13    14   ar
    21    14    15   ar
    22    15    16    1
    23    15    17   ar
    24     6     7    1
    25     7     8    1
    26    22    23   ar
    27    23    24   ar
    28    29    30    1
    29    30    31    1
    30    31    32    1
    31    32    27    1
    32    24    19   ar
    33     8     3    1
    34    17    11   ar
    35     9    10    1
    36    32    33    1
@<TRIPOS>MOLECULE
*****
 33 36 0 0 0
SMALL
GASTEIGER

@<TRIPOS>ATOM
      1 C         138.0883  139.2758  161.8131 C.2     1  UNL1        0.2301
      2 O         137.2905  138.0064  161.7682 O.2     1  UNL1       -0.2745
      3 N         138.9342  139.5880  163.0119 N.am    1  UNL1       -0.2792
      4 C         138.9823  138.6308  164.1657 C.3     1  UNL1        0.0951
      5 C         139.8282  138.9430  165.3644 C.3     1  UNL1        0.0410
      6 C         140.6260  140.2124  165.4093 C.3     1  UNL1        0.0724
      7 C         140.5779  141.1697  164.2555 C.3     1  UNL1        0.0410
      8 C         139.7320  140.8575  163.0567 C.3     1  UNL1        0.0951
      9 N         141.4719  140.5246  166.6081 N.pl3   1  UNL1       -0.3339
     10 H         142.4442  140.3727  166.5775 H       1  UNL1        0.1468
     11 C         140.8366  141.0683  167.8533 C.ar    1  UNL1        0.0469
     12 C         139.9992  140.1747  168.7196 C.ar    1  UNL1        0.0144
     13 C         139.3638  140.7184  169.9649 C.ar    1  UNL1        0.0036
     14 C         139.5658  142.1556  170.3439 C.ar    1  UNL1        0.0297
     15 C         140.4031  143.0491  169.4776 C.ar    1  UNL1        0.1414
     16 F         140.6051  144.4864  169.8566 F       1  UNL1       -0.2041
     17 C         141.0385  142.5055  168.2323 C.ar    1  UNL1        0.0439
     18 C         138.0402  140.2331  160.6593 C.3     1  UNL1        0.1116
     19 C         139.9500  139.1275  156.7375 C.ar    1  UNL1       -0.0062
     20 C         140.3010  138.3686  157.9829 C.ar    1  UNL1       -0.0032
     21 C         139.6644  138.7371  159.2902 C.ar    1  UNL1       -0.0041
     22 C         138.6768  139.8645  159.3520 C.ar    1  UNL1       -0.0131
     23 C         138.3259  140.6233  158.1066 C.ar    1  UNL1       -0.0041
     24 C         138.9625  140.2548  156.7994 C.ar    1  UNL1       -0.0032
     25 C         140.5866  138.7589  155.4302 C.3     1  UNL1        0.0992
     26 C         143.8515  134.7288  155.7443 C.3     1  UNL1        0.0186
     27 C         143.6163  136.1988  155.5608 C.3     1  UNL1        0.0703
     28 C         142.2191  136.7439  155.5873 C.3     1  UNL1        0.0882
     29 N         141.9839  138.2139  155.4037 N.3     1  UNL1       -0.2666
     30 C         143.1459  139.1389  155.1937 C.3     1  UNL1        0.0897
     31 C         144.5431  138.5939  155.1673 C.3     1  UNL1        0.0861
     32 N         144.7783  137.1238  155.3508 N.3     1  UNL1       -0.2963
     33 H         145.3862  137.0221  156.1635 H       1  UNL1        0.1233
@<TRIPOS>BOND
     1    27    26    1
     2    27    28    1
     3    28    29    1
     4    29    25    1
     5    25    19    1
     6    19    20   ar
     7    20    21   ar
     8    21    22   ar
     9    22    18    1
    10    18     1    1
    11     1     2    2
    12     1     3   am
    13     3     4    1
    14     4     5    1
    15     5     6    1
    16     6     9    1
    17     9    11    1
    18    11    12   ar
    19    12    13   ar
    20    13    14   ar
    21    14    15   ar
    22    15    16    1
    23    15    17   ar
    24     6     7    1
    25     7     8    1
    26    22    23   ar
    27    23    24   ar
    28    29    30    1
    29    30    31    1
    30    31    32    1
    31    32    27    1
    32    24    19   ar
    33     8     3    1
    34    17    11   ar
    35     9    10    1
    36    32    33    1
