@<TRIPOS>MOLECULE
*****
 35 38 0 0 0
SMALL
GASTEIGER

@<TRIPOS>ATOM
      1 C         143.2953  142.6185  164.9223 C.ar    1  UNL1        0.1532
      2 C         143.3223  142.1490  166.3466 C.ar    1  UNL1        0.0573
      3 C         142.1071  141.5076  166.9481 C.ar    1  UNL1        0.0856
      4 N         142.1342  141.0381  168.3725 N.ar    1  UNL1       -0.2435
      5 C         140.9190  140.3967  168.9740 C.ar    1  UNL1        0.1045
      6 C         139.6766  140.2248  168.1511 C.ar    1  UNL1        0.0856
      7 C         139.6496  140.6943  166.7267 C.ar    1  UNL1        0.0557
      8 C         140.8648  141.3357  166.1253 C.ar    1  UNL1        0.0327
      9 C         140.8378  141.8052  164.7009 C.ar    1  UNL1        0.0203
     10 C         142.0530  142.4466  164.0995 C.ar    1  UNL1        0.0825
     11 N         142.0259  142.9162  162.6750 N.pl3   1  UNL1       -0.3023
     12 C         141.4849  144.2753  162.3435 C.3     1  UNL1        0.1082
     13 C         141.4578  144.7449  160.9192 C.3     1  UNL1        0.0938
     14 N         141.9717  143.8552  159.8263 N.3     1  UNL1       -0.2686
     15 C         141.9446  144.3248  158.4020 C.3     1  UNL1        0.0897
     16 C         142.5128  142.4960  160.1578 C.3     1  UNL1        0.0938
     17 C         142.5399  142.0265  161.5822 C.3     1  UNL1        0.1082
     18 C         138.4614  139.5833  168.7526 C.2     1  UNL1        0.2455
     19 N         138.0780  139.8858  170.1708 N.am    1  UNL1       -0.3252
     20 O         137.6296  138.6394  167.9357 O.2     1  UNL1       -0.2703
     21 H         138.6239  140.5054  170.7069 H       1  UNL1        0.1453
     22 H         137.2803  139.4648  170.5656 H       1  UNL1        0.1453
     23 N         138.4073  140.5224  165.9039 N.pl3   1  UNL1       -0.3117
     24 H         137.5725  140.9692  166.1736 H       1  UNL1        0.1522
     25 C         138.4369  139.6697  164.6701 C.ar    1  UNL1        0.0598
     26 C         139.0144  138.2865  164.7281 C.ar    1  UNL1        0.0155
     27 C         139.0440  137.4339  163.4944 C.ar    1  UNL1        0.0022
     28 C         138.4962  137.9644  162.2026 C.ar    1  UNL1        0.0123
     29 C         137.9187  139.3475  162.1447 C.ar    1  UNL1        0.0694
     30 CL        137.3709  139.8781  160.8530 Cl      1  UNL1       -0.0813
     31 C         137.8891  140.2002  163.3785 C.ar    1  UNL1        0.0815
     32 CL        137.3116  141.5834  163.3205 Cl      1  UNL1       -0.0801
     33 O         144.5105  143.2600  164.3208 O.3     1  UNL1       -0.4742
     34 C         145.4534  140.9159  163.7158 C.3     1  UNL1        0.0512
     35 C         145.5620  142.4112  163.6697 C.3     1  UNL1        0.2056
@<TRIPOS>BOND
     1    34    35    1
     2    35    33    1
     3    33     1    1
     4     1     2   ar
     5     2     3   ar
     6     3     4   ar
     7     4     5   ar
     8     5     6   ar
     9     6    18    1
    10    18    19   am
    11    18    20    2
    12     6     7   ar
    13     7    23    1
    14    23    25    1
    15    25    26   ar
    16    26    27   ar
    17    27    28   ar
    18    28    29   ar
    19    29    30    1
    20    29    31   ar
    21    31    32    1
    22     7     8   ar
    23     8     9   ar
    24     9    10   ar
    25    10    11    1
    26    11    12    1
    27    12    13    1
    28    13    14    1
    29    14    15    1
    30    14    16    1
    31    16    17    1
    32    10     1   ar
    33    17    11    1
    34     8     3   ar
    35    31    25   ar
    36    19    21    1
    37    19    22    1
    38    23    24    1
@<TRIPOS>MOLECULE
*****
 35 38 0 0 0
SMALL
GASTEIGER

@<TRIPOS>ATOM
      1 C         143.8808  142.2587  164.6010 C.ar    1  UNL1        0.1532
      2 C         143.8040  142.6276  166.0528 C.ar    1  UNL1        0.0573
      3 C         142.7771  141.9841  166.9369 C.ar    1  UNL1        0.0856
      4 N         142.7003  142.3531  168.3888 N.ar    1  UNL1       -0.2435
      5 C         141.6735  141.7097  169.2729 C.ar    1  UNL1        0.1045
      6 C         140.7235  140.6972  168.7050 C.ar    1  UNL1        0.0856
      7 C         140.8003  140.3283  167.2531 C.ar    1  UNL1        0.0557
      8 C         141.8271  140.9717  166.3691 C.ar    1  UNL1        0.0327
      9 C         141.9039  140.6028  164.9172 C.ar    1  UNL1        0.0203
     10 C         142.9308  141.2463  164.0332 C.ar    1  UNL1        0.0825
     11 N         143.0076  140.8773  162.5813 N.pl3   1  UNL1       -0.3023
     12 C         142.0736  141.5140  161.5952 C.3     1  UNL1        0.1082
     13 C         142.1503  141.1451  160.1434 C.3     1  UNL1        0.0938
     14 N         143.1611  140.1394  159.6775 N.3     1  UNL1       -0.2686
     15 C         143.2379  139.7704  158.2256 C.3     1  UNL1        0.0897
     16 C         144.0951  139.5027  160.6635 C.3     1  UNL1        0.0938
     17 C         144.0183  139.8716  162.1154 C.3     1  UNL1        0.1082
     18 C         139.6966  140.0537  169.5890 C.2     1  UNL1        0.2455
     19 N         140.0070  139.7944  171.0335 N.am    1  UNL1       -0.3252
     20 O         138.3593  139.6695  169.0286 O.2     1  UNL1       -0.2703
     21 H         140.8847  140.0466  171.4013 H       1  UNL1        0.1453
     22 H         139.3331  139.3721  171.6137 H       1  UNL1        0.1453
     23 N         139.8503  139.3158  166.6853 N.pl3   1  UNL1       -0.3117
     24 H         139.6964  138.4660  167.1578 H       1  UNL1        0.1522
     25 C         139.1347  139.5983  165.3976 C.ar    1  UNL1        0.0598
     26 C         138.3752  140.8805  165.2272 C.ar    1  UNL1        0.0155
     27 C         137.6597  141.1630  163.9395 C.ar    1  UNL1        0.0022
     28 C         137.7036  140.1632  162.8221 C.ar    1  UNL1        0.0123
     29 C         138.4632  138.8810  162.9924 C.ar    1  UNL1        0.0694
     30 CL        138.5072  137.8812  161.8751 Cl      1  UNL1       -0.0813
     31 C         139.1787  138.5985  164.2802 C.ar    1  UNL1        0.0815
     32 CL        139.9383  137.3163  164.4505 Cl      1  UNL1       -0.0801
     33 O         144.9076  142.9022  163.7169 O.3     1  UNL1       -0.4742
     34 C         143.6205  145.1107  163.2525 C.3     1  UNL1        0.0512
     35 C         144.5054  143.9978  162.7747 C.3     1  UNL1        0.2056
@<TRIPOS>BOND
     1    34    35    1
     2    35    33    1
     3    33     1    1
     4     1     2   ar
     5     2     3   ar
     6     3     4   ar
     7     4     5   ar
     8     5     6   ar
     9     6    18    1
    10    18    19   am
    11    18    20    2
    12     6     7   ar
    13     7    23    1
    14    23    25    1
    15    25    26   ar
    16    26    27   ar
    17    27    28   ar
    18    28    29   ar
    19    29    30    1
    20    29    31   ar
    21    31    32    1
    22     7     8   ar
    23     8     9   ar
    24     9    10   ar
    25    10    11    1
    26    11    12    1
    27    12    13    1
    28    13    14    1
    29    14    15    1
    30    14    16    1
    31    16    17    1
    32    10     1   ar
    33    17    11    1
    34     8     3   ar
    35    31    25   ar
    36    19    21    1
    37    19    22    1
    38    23    24    1
@<TRIPOS>MOLECULE
*****
 35 38 0 0 0
SMALL
GASTEIGER

@<TRIPOS>ATOM
      1 C         139.9005  143.9475  164.5977 C.ar    1  UNL1        0.1532
      2 C         139.7254  143.8815  166.0860 C.ar    1  UNL1        0.0573
      3 C         140.5116  142.8891  166.8904 C.ar    1  UNL1        0.0856
      4 N         140.3365  142.8232  168.3787 N.ar    1  UNL1       -0.2435
      5 C         141.1226  141.8307  169.1831 C.ar    1  UNL1        0.1045
      6 C         142.0838  140.9042  168.4991 C.ar    1  UNL1        0.0856
      7 C         142.2588  140.9701  167.0109 C.ar    1  UNL1        0.0557
      8 C         141.4727  141.9626  166.2065 C.ar    1  UNL1        0.0327
      9 C         141.6477  142.0285  164.7182 C.ar    1  UNL1        0.0203
     10 C         140.8616  143.0209  163.9138 C.ar    1  UNL1        0.0825
     11 N         141.0367  143.0869  162.4255 N.pl3   1  UNL1       -0.3023
     12 C         141.7195  144.2681  161.8022 C.3     1  UNL1        0.1082
     13 C         141.8946  144.3340  160.3140 C.3     1  UNL1        0.0938
     14 N         141.3868  143.2187  159.4489 N.3     1  UNL1       -0.2686
     15 C         141.5619  143.2847  157.9606 C.3     1  UNL1        0.0897
     16 C         140.7040  142.0375  160.0721 C.3     1  UNL1        0.0938
     17 C         140.5289  141.9716  161.5605 C.3     1  UNL1        0.1082
     18 C         142.8699  139.9117  169.3035 C.2     1  UNL1        0.2455
     19 N         143.4111  140.2968  170.6484 N.am    1  UNL1       -0.3252
     20 O         143.1149  138.5340  168.7630 O.2     1  UNL1       -0.2703
     21 H         143.2503  141.2010  171.0032 H       1  UNL1        0.1453
     22 H         143.9270  139.6455  171.1764 H       1  UNL1        0.1453
     23 N         143.2200  140.0436  166.3270 N.pl3   1  UNL1       -0.3117
     24 H         144.1570  139.9984  166.6256 H       1  UNL1        0.1522
     25 C         142.7534  139.1859  165.1882 C.ar    1  UNL1        0.0598
     26 C         141.4635  138.4285  165.2993 C.ar    1  UNL1        0.0155
     27 C         140.9969  137.5708  164.1605 C.ar    1  UNL1        0.0022
     28 C         141.8203  137.4706  162.9107 C.ar    1  UNL1        0.0123
     29 C         143.1103  138.2280  162.7996 C.ar    1  UNL1        0.0694
     30 CL        143.9337  138.1278  161.5499 Cl      1  UNL1       -0.0813
     31 C         143.5768  139.0857  163.9385 C.ar    1  UNL1        0.0815
     32 CL        144.8668  139.8431  163.8274 Cl      1  UNL1       -0.0801
     33 O         139.1143  144.9399  163.7933 O.3     1  UNL1       -0.4742
     34 C         137.4222  143.0808  163.1373 C.3     1  UNL1        0.0512
     35 C         137.9230  144.4882  163.0017 C.3     1  UNL1        0.2056
@<TRIPOS>BOND
     1    34    35    1
     2    35    33    1
     3    33     1    1
     4     1     2   ar
     5     2     3   ar
     6     3     4   ar
     7     4     5   ar
     8     5     6   ar
     9     6    18    1
    10    18    19   am
    11    18    20    2
    12     6     7   ar
    13     7    23    1
    14    23    25    1
    15    25    26   ar
    16    26    27   ar
    17    27    28   ar
    18    28    29   ar
    19    29    30    1
    20    29    31   ar
    21    31    32    1
    22     7     8   ar
    23     8     9   ar
    24     9    10   ar
    25    10    11    1
    26    11    12    1
    27    12    13    1
    28    13    14    1
    29    14    15    1
    30    14    16    1
    31    16    17    1
    32    10     1   ar
    33    17    11    1
    34     8     3   ar
    35    31    25   ar
    36    19    21    1
    37    19    22    1
    38    23    24    1
@<TRIPOS>MOLECULE
*****
 35 38 0 0 0
SMALL
GASTEIGER

@<TRIPOS>ATOM
      1 C         139.8121  138.3235  163.4570 C.ar    1  UNL1        0.1532
      2 C         139.0580  138.1436  164.7411 C.ar    1  UNL1        0.0573
      3 C         139.3333  139.0481  165.9056 C.ar    1  UNL1        0.0856
      4 N         138.5792  138.8682  167.1897 N.ar    1  UNL1       -0.2435
      5 C         138.8544  139.7728  168.3542 C.ar    1  UNL1        0.1045
      6 C         139.8839  140.8572  168.2346 C.ar    1  UNL1        0.0856
      7 C         140.6380  141.0371  166.9505 C.ar    1  UNL1        0.0557
      8 C         140.3627  140.1326  165.7860 C.ar    1  UNL1        0.0327
      9 C         141.1168  140.3125  164.5019 C.ar    1  UNL1        0.0203
     10 C         140.8415  139.4079  163.3374 C.ar    1  UNL1        0.0825
     11 N         141.5957  139.5878  162.0533 N.pl3   1  UNL1       -0.3023
     12 C         141.1879  140.6612  161.0881 C.3     1  UNL1        0.1082
     13 C         141.9420  140.8412  159.8040 C.3     1  UNL1        0.0938
     14 N         143.1039  139.9477  159.4851 N.3     1  UNL1       -0.2686
     15 C         143.8580  140.1277  158.2010 C.3     1  UNL1        0.0897
     16 C         143.5117  138.8743  160.4502 C.3     1  UNL1        0.0938
     17 C         142.7576  138.6944  161.7344 C.3     1  UNL1        0.1082
     18 C         140.1591  141.7618  169.3990 C.2     1  UNL1        0.2455
     19 N         140.1744  141.2069  170.7925 N.am    1  UNL1       -0.3252
     20 O         140.4192  143.2213  169.1700 O.2     1  UNL1       -0.2703
     21 H         140.0037  140.2491  170.9429 H       1  UNL1        0.1453
     22 H         140.3550  141.8006  171.5568 H       1  UNL1        0.1453
     23 N         141.6673  142.1216  166.8309 N.pl3   1  UNL1       -0.3117
     24 H         142.4132  142.1651  167.4719 H       1  UNL1        0.1522
     25 C         141.5603  143.1397  165.7345 C.ar    1  UNL1        0.0598
     26 C         140.2257  143.7292  165.3861 C.ar    1  UNL1        0.0155
     27 C         140.1186  144.7473  164.2898 C.ar    1  UNL1        0.0022
     28 C         141.3461  145.1759  163.5417 C.ar    1  UNL1        0.0123
     29 C         142.6807  144.5864  163.8901 C.ar    1  UNL1        0.0694
     30 CL        143.9082  145.0150  163.1421 Cl      1  UNL1       -0.0813
     31 C         142.7878  143.5683  164.9865 C.ar    1  UNL1        0.0815
     32 CL        144.1224  142.9788  165.3348 Cl      1  UNL1       -0.0801
     33 O         139.5369  137.4189  162.2925 O.3     1  UNL1       -0.4742
     34 C         137.7114  139.0024  161.3385 C.3     1  UNL1        0.0512
     35 C         138.7236  137.9145  161.1337 C.3     1  UNL1        0.2056
@<TRIPOS>BOND
     1    34    35    1
     2    35    33    1
     3    33     1    1
     4     1     2   ar
     5     2     3   ar
     6     3     4   ar
     7     4     5   ar
     8     5     6   ar
     9     6    18    1
    10    18    19   am
    11    18    20    2
    12     6     7   ar
    13     7    23    1
    14    23    25    1
    15    25    26   ar
    16    26    27   ar
    17    27    28   ar
    18    28    29   ar
    19    29    30    1
    20    29    31   ar
    21    31    32    1
    22     7     8   ar
    23     8     9   ar
    24     9    10   ar
    25    10    11    1
    26    11    12    1
    27    12    13    1
    28    13    14    1
    29    14    15    1
    30    14    16    1
    31    16    17    1
    32    10     1   ar
    33    17    11    1
    34     8     3   ar
    35    31    25   ar
    36    19    21    1
    37    19    22    1
    38    23    24    1
@<TRIPOS>MOLECULE
*****
 35 38 0 0 0
SMALL
GASTEIGER

@<TRIPOS>ATOM
      1 C         138.3027  141.1781  162.5182 C.ar    1  UNL1        0.1532
      2 C         137.7870  140.2722  163.5968 C.ar    1  UNL1        0.0573
      3 C         138.4638  140.2384  164.9350 C.ar    1  UNL1        0.0856
      4 N         137.9481  139.3324  166.0136 N.ar    1  UNL1       -0.2435
      5 C         138.6248  139.2985  167.3518 C.ar    1  UNL1        0.1045
      6 C         139.8174  140.1707  167.6114 C.ar    1  UNL1        0.0856
      7 C         140.3330  141.0766  166.5329 C.ar    1  UNL1        0.0557
      8 C         139.6563  141.1104  165.1947 C.ar    1  UNL1        0.0327
      9 C         140.1719  142.0164  164.1161 C.ar    1  UNL1        0.0203
     10 C         139.4952  142.0502  162.7779 C.ar    1  UNL1        0.0825
     11 N         140.0109  142.9562  161.6993 N.pl3   1  UNL1       -0.3023
     12 C         139.6884  144.4207  161.7322 C.3     1  UNL1        0.1082
     13 C         140.2041  145.3267  160.6537 C.3     1  UNL1        0.0938
     14 N         141.0423  144.7681  159.5422 N.3     1  UNL1       -0.2686
     15 C         141.5580  145.6741  158.4637 C.3     1  UNL1        0.0897
     16 C         141.3648  143.3036  159.5092 C.3     1  UNL1        0.0938
     17 C         140.8491  142.3976  160.5878 C.3     1  UNL1        0.1082
     18 C         140.4942  140.1369  168.9497 C.2     1  UNL1        0.2455
     19 N         139.6882  139.8976  170.1919 N.am    1  UNL1       -0.3252
     20 O         141.9770  140.3423  169.0456 O.2     1  UNL1       -0.2703
     21 H         138.7150  139.7627  170.1289 H       1  UNL1        0.1453
     22 H         140.1324  139.8754  171.0702 H       1  UNL1        0.1453
     23 N         141.5255  141.9487  166.7925 N.pl3   1  UNL1       -0.3117
     24 H         141.5359  142.5488  167.5729 H       1  UNL1        0.1522
     25 C         142.7022  141.9065  165.8631 C.ar    1  UNL1        0.0598
     26 C         143.2586  143.1802  165.2992 C.ar    1  UNL1        0.0155
     27 C         144.4352  143.1381  164.3699 C.ar    1  UNL1        0.0022
     28 C         145.0555  141.8221  164.0044 C.ar    1  UNL1        0.0123
     29 C         144.4991  140.5484  164.5683 C.ar    1  UNL1        0.0694
     30 CL        145.1194  139.2324  164.2028 Cl      1  UNL1       -0.0813
     31 C         143.3224  140.5906  165.4977 C.ar    1  UNL1        0.0815
     32 CL        142.7661  139.3168  166.0616 Cl      1  UNL1       -0.0801
     33 O         137.6259  141.2120  161.1800 O.3     1  UNL1       -0.4742
     34 C         138.9223  139.2101  160.1496 C.3     1  UNL1        0.0512
     35 C         137.6569  140.0027  160.2931 C.3     1  UNL1        0.2056
@<TRIPOS>BOND
     1    34    35    1
     2    35    33    1
     3    33     1    1
     4     1     2   ar
     5     2     3   ar
     6     3     4   ar
     7     4     5   ar
     8     5     6   ar
     9     6    18    1
    10    18    19   am
    11    18    20    2
    12     6     7   ar
    13     7    23    1
    14    23    25    1
    15    25    26   ar
    16    26    27   ar
    17    27    28   ar
    18    28    29   ar
    19    29    30    1
    20    29    31   ar
    21    31    32    1
    22     7     8   ar
    23     8     9   ar
    24     9    10   ar
    25    10    11    1
    26    11    12    1
    27    12    13    1
    28    13    14    1
    29    14    15    1
    30    14    16    1
    31    16    17    1
    32    10     1   ar
    33    17    11    1
    34     8     3   ar
    35    31    25   ar
    36    19    21    1
    37    19    22    1
    38    23    24    1
@<TRIPOS>MOLECULE
*****
 35 38 0 0 0
SMALL
GASTEIGER

@<TRIPOS>ATOM
      1 C         138.7551  140.6367  162.6025 C.ar    1  UNL1        0.1532
      2 C         138.3186  140.9968  161.2133 C.ar    1  UNL1        0.0573
      3 C         139.0090  142.1039  160.4734 C.ar    1  UNL1        0.0856
      4 N         138.5724  142.4640  159.0842 N.ar    1  UNL1       -0.2435
      5 C         139.2629  143.5711  158.3443 C.ar    1  UNL1        0.1045
      6 C         140.3900  144.3183  158.9937 C.ar    1  UNL1        0.0856
      7 C         140.8265  143.9582  160.3828 C.ar    1  UNL1        0.0557
      8 C         140.1361  142.8511  161.1227 C.ar    1  UNL1        0.0327
      9 C         140.5726  142.4910  162.5118 C.ar    1  UNL1        0.0203
     10 C         139.8822  141.3839  163.2517 C.ar    1  UNL1        0.0825
     11 N         140.3188  141.0238  164.6409 N.pl3   1  UNL1       -0.3023
     12 C         139.4353  141.3415  165.8107 C.3     1  UNL1        0.1082
     13 C         139.8718  140.9815  167.1999 C.3     1  UNL1        0.0938
     14 N         141.1920  140.3038  167.4193 N.3     1  UNL1       -0.2686
     15 C         141.6285  139.9438  168.8084 C.3     1  UNL1        0.0897
     16 C         142.0755  139.9862  166.2495 C.3     1  UNL1        0.0938
     17 C         141.6389  140.3462  164.8602 C.3     1  UNL1        0.1082
     18 C         141.0804  145.4254  158.2538 C.2     1  UNL1        0.2455
     19 N         140.2740  146.4389  157.4972 N.am    1  UNL1       -0.3252
     20 O         142.5775  145.5191  158.2704 O.2     1  UNL1       -0.2703
     21 H         139.2914  146.3775  157.4863 H       1  UNL1        0.1453
     22 H         140.7271  147.1656  157.0116 H       1  UNL1        0.1453
     23 N         141.9536  144.7054  161.0320 N.pl3   1  UNL1       -0.3117
     24 H         141.9863  145.6880  160.9817 H       1  UNL1        0.1522
     25 C         143.0308  143.9553  161.7580 C.ar    1  UNL1        0.0598
     26 C         143.8576  142.9376  161.0294 C.ar    1  UNL1        0.0155
     27 C         144.9348  142.1876  161.7552 C.ar    1  UNL1        0.0022
     28 C         145.1853  142.4551  163.2098 C.ar    1  UNL1        0.0123
     29 C         144.3586  143.4728  163.9384 C.ar    1  UNL1        0.0694
     30 CL        144.6091  143.7404  165.3929 Cl      1  UNL1       -0.0813
     31 C         143.2813  144.2229  163.2125 C.ar    1  UNL1        0.0815
     32 CL        142.4546  145.2405  163.9411 Cl      1  UNL1       -0.0801
     33 O         138.0647  139.5296  163.3424 O.3     1  UNL1       -0.4742
     34 C         139.0821  137.6255  164.7878 C.3     1  UNL1        0.0512
     35 C         138.7098  138.1793  163.4444 C.3     1  UNL1        0.2056
@<TRIPOS>BOND
     1    34    35    1
     2    35    33    1
     3    33     1    1
     4     1     2   ar
     5     2     3   ar
     6     3     4   ar
     7     4     5   ar
     8     5     6   ar
     9     6    18    1
    10    18    19   am
    11    18    20    2
    12     6     7   ar
    13     7    23    1
    14    23    25    1
    15    25    26   ar
    16    26    27   ar
    17    27    28   ar
    18    28    29   ar
    19    29    30    1
    20    29    31   ar
    21    31    32    1
    22     7     8   ar
    23     8     9   ar
    24     9    10   ar
    25    10    11    1
    26    11    12    1
    27    12    13    1
    28    13    14    1
    29    14    15    1
    30    14    16    1
    31    16    17    1
    32    10     1   ar
    33    17    11    1
    34     8     3   ar
    35    31    25   ar
    36    19    21    1
    37    19    22    1
    38    23    24    1
@<TRIPOS>MOLECULE
*****
 35 38 0 0 0
SMALL
GASTEIGER

@<TRIPOS>ATOM
      1 C         140.9388  138.2621  163.6090 C.ar    1  UNL1        0.1532
      2 C         140.8419  137.9422  162.1467 C.ar    1  UNL1        0.0573
      3 C         141.7100  138.6670  161.1613 C.ar    1  UNL1        0.0856
      4 N         141.6131  138.3470  159.6989 N.ar    1  UNL1       -0.2435
      5 C         142.4812  139.0718  158.7135 C.ar    1  UNL1        0.1045
      6 C         143.4463  140.1165  159.1904 C.ar    1  UNL1        0.0856
      7 C         143.5432  140.4364  160.6526 C.ar    1  UNL1        0.0557
      8 C         142.6750  139.7116  161.6381 C.ar    1  UNL1        0.0327
      9 C         142.7719  140.0315  163.1003 C.ar    1  UNL1        0.0203
     10 C         141.9038  139.3068  164.0858 C.ar    1  UNL1        0.0825
     11 N         142.0007  139.6267  165.5481 N.pl3   1  UNL1       -0.3023
     12 C         142.8263  138.7602  166.4523 C.3     1  UNL1        0.1082
     13 C         142.9232  139.0801  167.9145 C.3     1  UNL1        0.0938
     14 N         142.1946  140.2666  168.4727 N.3     1  UNL1       -0.2686
     15 C         142.2916  140.5864  169.9349 C.3     1  UNL1        0.0897
     16 C         141.3691  141.1331  167.5685 C.3     1  UNL1        0.0938
     17 C         141.2721  140.8131  166.1062 C.3     1  UNL1        0.1082
     18 C         144.3144  140.8412  158.2050 C.2     1  UNL1        0.2455
     19 N         145.0671  140.0716  157.1604 N.am    1  UNL1       -0.3252
     20 O         144.4298  142.3357  158.2641 O.2     1  UNL1       -0.2703
     21 H         144.9913  139.0908  157.1215 H       1  UNL1        0.1453
     22 H         145.6368  140.5473  156.5136 H       1  UNL1        0.1453
     23 N         144.5082  141.4810  161.1295 N.pl3   1  UNL1       -0.3117
     24 H         145.4516  141.4437  160.8505 H       1  UNL1        0.1522
     25 C         144.0358  142.5826  162.0314 C.ar    1  UNL1        0.0598
     26 C         142.9405  143.5031  161.5808 C.ar    1  UNL1        0.0155
     27 C         142.4681  144.6047  162.4827 C.ar    1  UNL1        0.0022
     28 C         143.0911  144.7858  163.8352 C.ar    1  UNL1        0.0123
     29 C         144.1865  143.8654  164.2857 C.ar    1  UNL1        0.0694
     30 CL        144.8094  144.0465  165.6381 Cl      1  UNL1       -0.0813
     31 C         144.6588  142.7638  163.3838 C.ar    1  UNL1        0.0815
     32 CL        145.7541  141.8433  163.8343 Cl      1  UNL1       -0.0801
     33 O         140.0707  137.5374  164.5944 O.3     1  UNL1       -0.4742
     34 C         138.3434  138.5911  166.2242 C.3     1  UNL1        0.0512
     35 C         138.6819  138.0300  164.8749 C.3     1  UNL1        0.2056
@<TRIPOS>BOND
     1    34    35    1
     2    35    33    1
     3    33     1    1
     4     1     2   ar
     5     2     3   ar
     6     3     4   ar
     7     4     5   ar
     8     5     6   ar
     9     6    18    1
    10    18    19   am
    11    18    20    2
    12     6     7   ar
    13     7    23    1
    14    23    25    1
    15    25    26   ar
    16    26    27   ar
    17    27    28   ar
    18    28    29   ar
    19    29    30    1
    20    29    31   ar
    21    31    32    1
    22     7     8   ar
    23     8     9   ar
    24     9    10   ar
    25    10    11    1
    26    11    12    1
    27    12    13    1
    28    13    14    1
    29    14    15    1
    30    14    16    1
    31    16    17    1
    32    10     1   ar
    33    17    11    1
    34     8     3   ar
    35    31    25   ar
    36    19    21    1
    37    19    22    1
    38    23    24    1
@<TRIPOS>MOLECULE
*****
 35 38 0 0 0
SMALL
GASTEIGER

@<TRIPOS>ATOM
      1 C         139.3281  143.4628  164.1375 C.ar    1  UNL1        0.1532
      2 C         139.5379  143.7179  165.6006 C.ar    1  UNL1        0.0573
      3 C         140.1824  142.6706  166.4596 C.ar    1  UNL1        0.0856
      4 N         140.3922  142.9257  167.9229 N.ar    1  UNL1       -0.2435
      5 C         141.0367  141.8784  168.7819 C.ar    1  UNL1        0.1045
      6 C         141.4713  140.5761  168.1777 C.ar    1  UNL1        0.0856
      7 C         141.2615  140.3210  166.7145 C.ar    1  UNL1        0.0557
      8 C         140.6171  141.3683  165.8555 C.ar    1  UNL1        0.0327
      9 C         140.4072  141.1133  164.3923 C.ar    1  UNL1        0.0203
     10 C         139.7628  142.1605  163.5333 C.ar    1  UNL1        0.0825
     11 N         139.5530  141.9055  162.0701 N.pl3   1  UNL1       -0.3023
     12 C         138.2430  141.3597  161.5842 C.3     1  UNL1        0.1082
     13 C         138.0331  141.1046  160.1211 C.3     1  UNL1        0.0938
     14 N         139.1333  141.3953  159.1437 N.3     1  UNL1       -0.2686
     15 C         138.9235  141.1402  157.6806 C.3     1  UNL1        0.0897
     16 C         140.4433  141.9410  159.6296 C.3     1  UNL1        0.0938
     17 C         140.6531  142.1961  161.0928 C.3     1  UNL1        0.1082
     18 C         142.1158  139.5288  169.0367 C.2     1  UNL1        0.2455
     19 N         141.6422  139.3176  170.4442 N.am    1  UNL1       -0.3252
     20 O         143.2339  138.6927  168.4881 O.2     1  UNL1       -0.2703
     21 H         140.9084  139.8664  170.8042 H       1  UNL1        0.1453
     22 H         142.0652  138.6303  171.0079 H       1  UNL1        0.1453
     23 N         141.6962  139.0187  166.1103 N.pl3   1  UNL1       -0.3117
     24 H         141.3850  138.1685  166.4970 H       1  UNL1        0.1522
     25 C         142.6050  139.0118  164.9170 C.ar    1  UNL1        0.0598
     26 C         143.9052  139.7585  164.9602 C.ar    1  UNL1        0.0155
     27 C         144.8141  139.7516  163.7669 C.ar    1  UNL1        0.0022
     28 C         144.4227  138.9980  162.5303 C.ar    1  UNL1        0.0123
     29 C         143.1225  138.2513  162.4872 C.ar    1  UNL1        0.0694
     30 CL        142.7310  137.4977  161.2507 Cl      1  UNL1       -0.0813
     31 C         142.2136  138.2582  163.6805 C.ar    1  UNL1        0.0815
     32 CL        140.9134  137.5115  163.6374 Cl      1  UNL1       -0.0801
     33 O         138.6837  144.5101  163.2785 O.3     1  UNL1       -0.4742
     34 C         141.0191  145.5157  162.7452 C.3     1  UNL1        0.0512
     35 C         139.5333  145.5017  162.5404 C.3     1  UNL1        0.2056
@<TRIPOS>BOND
     1    34    35    1
     2    35    33    1
     3    33     1    1
     4     1     2   ar
     5     2     3   ar
     6     3     4   ar
     7     4     5   ar
     8     5     6   ar
     9     6    18    1
    10    18    19   am
    11    18    20    2
    12     6     7   ar
    13     7    23    1
    14    23    25    1
    15    25    26   ar
    16    26    27   ar
    17    27    28   ar
    18    28    29   ar
    19    29    30    1
    20    29    31   ar
    21    31    32    1
    22     7     8   ar
    23     8     9   ar
    24     9    10   ar
    25    10    11    1
    26    11    12    1
    27    12    13    1
    28    13    14    1
    29    14    15    1
    30    14    16    1
    31    16    17    1
    32    10     1   ar
    33    17    11    1
    34     8     3   ar
    35    31    25   ar
    36    19    21    1
    37    19    22    1
    38    23    24    1
@<TRIPOS>MOLECULE
*****
 35 38 0 0 0
SMALL
GASTEIGER

@<TRIPOS>ATOM
      1 C         143.5947  139.5892  163.7860 C.ar    1  UNL1        0.1532
      2 C         143.4079  139.0602  165.1771 C.ar    1  UNL1        0.0573
      3 C         142.5946  139.8350  166.1712 C.ar    1  UNL1        0.0856
      4 N         142.4078  139.3060  167.5624 N.ar    1  UNL1       -0.2435
      5 C         141.5945  140.0807  168.5565 C.ar    1  UNL1        0.1045
      6 C         140.9680  141.3846  168.1594 C.ar    1  UNL1        0.0856
      7 C         141.1548  141.9136  166.7683 C.ar    1  UNL1        0.0557
      8 C         141.9681  141.1388  165.7742 C.ar    1  UNL1        0.0327
      9 C         142.1549  141.6678  164.3831 C.ar    1  UNL1        0.0203
     10 C         142.9682  140.8930  163.3890 C.ar    1  UNL1        0.0825
     11 N         143.1550  141.4220  161.9978 N.pl3   1  UNL1       -0.3023
     12 C         142.0265  141.3546  161.0120 C.3     1  UNL1        0.1082
     13 C         142.2132  141.8837  159.6209 C.3     1  UNL1        0.0938
     14 N         143.5286  142.4801  159.2155 N.3     1  UNL1       -0.2686
     15 C         143.7153  143.0091  157.8244 C.3     1  UNL1        0.0897
     16 C         144.6571  142.5474  160.2013 C.3     1  UNL1        0.0938
     17 C         144.4703  142.0184  161.5925 C.3     1  UNL1        0.1082
     18 C         140.1547  142.1594  169.1535 C.2     1  UNL1        0.2455
     19 N         139.3463  141.4347  170.1885 N.am    1  UNL1       -0.3252
     20 O         140.1498  143.6588  169.1125 O.2     1  UNL1       -0.2703
     21 H         139.3495  140.4506  170.2154 H       1  UNL1        0.1453
     22 H         138.8125  141.9433  170.8410 H       1  UNL1        0.1453
     23 N         140.5283  143.2173  166.3713 N.pl3   1  UNL1       -0.3117
     24 H         140.6886  144.0250  166.9109 H       1  UNL1        0.1522
     25 C         139.6576  143.2905  165.1520 C.ar    1  UNL1        0.0598
     26 C         138.4655  142.3887  165.0265 C.ar    1  UNL1        0.0155
     27 C         137.5948  142.4619  163.8073 C.ar    1  UNL1        0.0022
     28 C         137.9160  143.4369  162.7136 C.ar    1  UNL1        0.0123
     29 C         139.1081  144.3388  162.8392 C.ar    1  UNL1        0.0694
     30 CL        139.4294  145.3138  161.7455 Cl      1  UNL1       -0.0813
     31 C         139.9788  144.2656  164.0584 C.ar    1  UNL1        0.0815
     32 CL        141.1709  145.1674  164.1839 Cl      1  UNL1       -0.0801
     33 O         144.4080  138.8144  162.7919 O.3     1  UNL1       -0.4742
     34 C         142.2507  137.7334  161.8289 C.3     1  UNL1        0.0512
     35 C         143.7232  138.0025  161.7328 C.3     1  UNL1        0.2056
@<TRIPOS>BOND
     1    34    35    1
     2    35    33    1
     3    33     1    1
     4     1     2   ar
     5     2     3   ar
     6     3     4   ar
     7     4     5   ar
     8     5     6   ar
     9     6    18    1
    10    18    19   am
    11    18    20    2
    12     6     7   ar
    13     7    23    1
    14    23    25    1
    15    25    26   ar
    16    26    27   ar
    17    27    28   ar
    18    28    29   ar
    19    29    30    1
    20    29    31   ar
    21    31    32    1
    22     7     8   ar
    23     8     9   ar
    24     9    10   ar
    25    10    11    1
    26    11    12    1
    27    12    13    1
    28    13    14    1
    29    14    15    1
    30    14    16    1
    31    16    17    1
    32    10     1   ar
    33    17    11    1
    34     8     3   ar
    35    31    25   ar
    36    19    21    1
    37    19    22    1
    38    23    24    1
