@<TRIPOS>MOLECULE
*****
 38 43 0 0 0
SMALL
GASTEIGER

@<TRIPOS>ATOM
      1 C         140.4175  138.1618  164.1161 C.3     1  UNL1        0.0941
      2 C         140.1900  138.1690  162.6334 C.3     1  UNL1        0.0282
      3 C         141.4951  138.4868  161.9657 C.3     1  UNL1        0.0232
      4 C         140.3583  138.2702  161.0114 C.3     1  UNL1        0.0215
      5 C         140.5888  138.3796  159.5333 C.3     1  UNL1        0.0727
      6 N         141.9561  138.7056  159.0095 N.3     1  UNL1       -0.2689
      7 C         143.0928  138.9223  159.9639 C.3     1  UNL1        0.0727
      8 C         142.8623  138.8129  161.4420 C.3     1  UNL1        0.0215
      9 C         142.5292  138.6760  163.0358 C.ar    1  UNL1       -0.0251
     10 C         143.9912  139.0052  162.9716 C.ar    1  UNL1       -0.0045
     11 C         144.7873  139.1336  164.2364 C.ar    1  UNL1       -0.0003
     12 C         144.1213  138.9327  165.5654 C.ar    1  UNL1       -0.0003
     13 C         142.6594  138.6035  165.6295 C.ar    1  UNL1       -0.0030
     14 C         141.8633  138.4751  164.3647 C.ar    1  UNL1       -0.0085
     15 C         137.7245  138.7546  166.9703 C.3     1  UNL1        0.0946
     16 C         138.7608  139.0272  165.9206 C.2     1  UNL1        0.2232
     17 O         139.1764  140.4380  165.6256 O.2     1  UNL1       -0.2751
     18 N         139.3813  137.8891  165.1658 N.am    1  UNL1       -0.3022
     19 H         139.1085  136.9632  165.3594 H       1  UNL1        0.1497
     20 C         142.1865  138.8150  157.5313 C.3     1  UNL1        0.0991
     21 C         142.2674  137.5751  156.6911 C.ar    1  UNL1       -0.0060
     22 C         141.6292  137.5458  155.3340 C.ar    1  UNL1       -0.0014
     23 C         141.7101  136.3058  154.4937 C.ar    1  UNL1        0.0174
     24 C         142.4293  135.0952  155.0106 C.ar    1  UNL1        0.0680
     25 C         143.0676  135.1245  156.3677 C.ar    1  UNL1        0.0174
     26 C         142.9867  136.3644  157.2079 C.ar    1  UNL1       -0.0014
     27 C         143.7041  133.7880  156.6095 C.ar    1  UNL1        0.0176
     28 C         144.4751  133.2393  157.7733 C.ar    1  UNL1        0.0015
     29 C         145.0013  131.8353  157.7295 C.ar    1  UNL1        0.0001
     30 C         144.7564  130.9800  156.5219 C.ar    1  UNL1        0.0015
     31 C         143.9854  131.5287  155.3580 C.ar    1  UNL1        0.0177
     32 C         143.4593  132.9326  155.4019 C.ar    1  UNL1        0.0680
     33 N         142.6714  133.7406  154.4137 N.ar    1  UNL1       -0.2628
     34 C         142.2071  133.2755  153.0653 C.2     1  UNL1        0.3169
     35 N         141.4236  134.2004  152.1817 N.am    1  UNL1       -0.3108
     36 O         142.5262  131.8855  152.6005 O.2     1  UNL1       -0.2494
     37 H         141.2142  135.1127  152.4868 H       1  UNL1        0.1467
     38 H         141.1189  133.8952  151.2967 H       1  UNL1        0.1467
@<TRIPOS>BOND
     1    15    16    1
     2    16    17    2
     3    16    18   am
     4     1    18    1
     5     1     2    1
     6     2     3    1
     7     3     4    1
     8     4     5    1
     9     5     6    1
    10     6    20    1
    11    20    21    1
    12    21    22   ar
    13    22    23   ar
    14    23    24   ar
    15    24    25   ar
    16    25    26   ar
    17    25    27   ar
    18    27    28   ar
    19    28    29   ar
    20    29    30   ar
    21    30    31   ar
    22    31    32   ar
    23    32    33   ar
    24    33    34   am
    25    34    35   am
    26    34    36    2
    27     6     7    1
    28     7     8    1
    29     3     9    1
    30     9    10   ar
    31    10    11   ar
    32    11    12   ar
    33    12    13   ar
    34    13    14   ar
    35    14     1    1
    36     8     3    1
    37    14     9   ar
    38    26    21   ar
    39    32    27   ar
    40    33    24   ar
    41    18    19    1
    42    35    37    1
    43    35    38    1
@<TRIPOS>MOLECULE
*****
 38 43 0 0 0
SMALL
GASTEIGER

@<TRIPOS>ATOM
      1 C         143.7885  143.0464  158.1305 C.3     1  UNL1        0.0941
      2 C         144.4411  142.5445  159.3844 C.3     1  UNL1        0.0282
      3 C         143.6391  143.0357  160.5530 C.3     1  UNL1        0.0232
      4 C         144.8303  142.2081  160.9352 C.3     1  UNL1        0.0215
      5 C         145.1248  141.9409  162.3815 C.3     1  UNL1        0.0727
      6 N         144.2281  142.5012  163.4455 N.3     1  UNL1       -0.2689
      7 C         143.0370  143.3287  163.0633 C.3     1  UNL1        0.0727
      8 C         142.7424  143.5960  161.6170 C.3     1  UNL1        0.0215
      9 C         142.4907  143.8411  160.0212 C.ar    1  UNL1       -0.0251
     10 C         141.3729  144.5693  160.7069 C.ar    1  UNL1       -0.0045
     11 C         140.3474  145.3041  159.8955 C.ar    1  UNL1       -0.0003
     12 C         140.4398  145.3107  158.3983 C.ar    1  UNL1       -0.0003
     13 C         141.5575  144.5825  157.7127 C.ar    1  UNL1       -0.0030
     14 C         142.5830  143.8477  158.5241 C.ar    1  UNL1       -0.0085
     15 C         145.2373  141.1793  154.9423 C.3     1  UNL1        0.0946
     16 C         144.7671  141.4341  156.3437 C.2     1  UNL1        0.2232
     17 O         144.8053  140.3312  157.3597 O.2     1  UNL1       -0.2751
     18 N         144.2587  142.7916  156.7290 N.am    1  UNL1       -0.3022
     19 H         144.2336  143.5154  156.0622 H       1  UNL1        0.1497
     20 C         144.5227  142.2338  164.8919 C.3     1  UNL1        0.0991
     21 C         143.4028  141.9253  165.8408 C.ar    1  UNL1       -0.0060
     22 C         143.3111  142.6468  167.1527 C.ar    1  UNL1       -0.0014
     23 C         142.1911  142.3383  168.1016 C.ar    1  UNL1        0.0174
     24 C         141.1629  141.3083  167.7387 C.ar    1  UNL1        0.0680
     25 C         141.2546  140.5868  166.4268 C.ar    1  UNL1        0.0174
     26 C         142.3745  140.8953  165.4779 C.ar    1  UNL1       -0.0014
     27 C         140.1033  139.6288  166.3432 C.ar    1  UNL1        0.0176
     28 C         139.6826  138.6554  165.2824 C.ar    1  UNL1        0.0015
     29 C         138.4587  137.8114  165.4818 C.ar    1  UNL1        0.0001
     30 C         137.6556  137.9409  166.7419 C.ar    1  UNL1        0.0015
     31 C         138.0763  138.9143  167.8027 C.ar    1  UNL1        0.0177
     32 C         139.3001  139.7583  167.6034 C.ar    1  UNL1        0.0680
     33 N         139.9549  140.7962  168.4658 N.ar    1  UNL1       -0.2628
     34 C         139.4845  141.2436  169.8181 C.2     1  UNL1        0.3169
     35 N         140.2462  142.2969  170.5666 N.am    1  UNL1       -0.3108
     36 O         138.2522  140.6377  170.4218 O.2     1  UNL1       -0.2494
     37 H         141.0550  142.6946  170.1704 H       1  UNL1        0.1467
     38 H         139.9375  142.5906  171.4541 H       1  UNL1        0.1467
@<TRIPOS>BOND
     1    15    16    1
     2    16    17    2
     3    16    18   am
     4     1    18    1
     5     1     2    1
     6     2     3    1
     7     3     4    1
     8     4     5    1
     9     5     6    1
    10     6    20    1
    11    20    21    1
    12    21    22   ar
    13    22    23   ar
    14    23    24   ar
    15    24    25   ar
    16    25    26   ar
    17    25    27   ar
    18    27    28   ar
    19    28    29   ar
    20    29    30   ar
    21    30    31   ar
    22    31    32   ar
    23    32    33   ar
    24    33    34   am
    25    34    35   am
    26    34    36    2
    27     6     7    1
    28     7     8    1
    29     3     9    1
    30     9    10   ar
    31    10    11   ar
    32    11    12   ar
    33    12    13   ar
    34    13    14   ar
    35    14     1    1
    36     8     3    1
    37    14     9   ar
    38    26    21   ar
    39    32    27   ar
    40    33    24   ar
    41    18    19    1
    42    35    37    1
    43    35    38    1
@<TRIPOS>MOLECULE
*****
 38 43 0 0 0
SMALL
GASTEIGER

@<TRIPOS>ATOM
      1 C         138.4016  140.9950  157.8484 C.3     1  UNL1        0.0941
      2 C         137.9126  140.4682  159.1650 C.3     1  UNL1        0.0282
      3 C         138.9839  139.5895  159.7396 C.3     1  UNL1        0.0232
      4 C         137.7604  139.7018  160.6000 C.3     1  UNL1        0.0215
      5 C         137.6925  138.9682  161.9065 C.3     1  UNL1        0.0727
      6 N         138.8481  138.1224  162.3527 N.3     1  UNL1       -0.2689
      7 C         140.0717  138.0101  161.4924 C.3     1  UNL1        0.0727
      8 C         140.1396  138.7437  160.1858 C.3     1  UNL1        0.0215
      9 C         140.1352  139.5732  158.7780 C.ar    1  UNL1       -0.0251
     10 C         141.4647  138.8797  158.8158 C.ar    1  UNL1       -0.0045
     11 C         142.4343  139.0547  157.6848 C.ar    1  UNL1       -0.0003
     12 C         142.0744  139.9233  156.5160 C.ar    1  UNL1       -0.0003
     13 C         140.7449  140.6168  156.4783 C.ar    1  UNL1       -0.0030
     14 C         139.7753  140.4418  157.6093 C.ar    1  UNL1       -0.0085
     15 C         135.9798  142.2652  154.9724 C.3     1  UNL1        0.0946
     16 C         136.7323  141.3466  155.8889 C.2     1  UNL1        0.2232
     17 O         136.5678  139.8610  155.7625 O.2     1  UNL1       -0.2751
     18 N         137.6492  141.9136  156.9319 N.am    1  UNL1       -0.3022
     19 H         137.7572  142.8886  157.0149 H       1  UNL1        0.1497
     20 C         138.7802  137.3888  163.6594 C.3     1  UNL1        0.0991
     21 C         138.9785  138.1312  164.9476 C.ar    1  UNL1       -0.0060
     22 C         137.9920  137.9696  166.0659 C.ar    1  UNL1       -0.0014
     23 C         138.1903  138.7121  167.3541 C.ar    1  UNL1        0.0174
     24 C         139.3751  139.6162  167.5239 C.ar    1  UNL1        0.0680
     25 C         140.3616  139.7779  166.4055 C.ar    1  UNL1        0.0174
     26 C         140.1633  139.0354  165.1174 C.ar    1  UNL1       -0.0014
     27 C         141.4259  140.7320  166.8605 C.ar    1  UNL1        0.0176
     28 C         142.6518  141.2663  166.1812 C.ar    1  UNL1        0.0015
     29 C         143.5491  142.2287  166.9015 C.ar    1  UNL1        0.0001
     30 C         143.2204  142.6567  168.3010 C.ar    1  UNL1        0.0015
     31 C         141.9944  142.1224  168.9803 C.ar    1  UNL1        0.0177
     32 C         141.0972  141.1600  168.2601 C.ar    1  UNL1        0.0680
     33 N         139.8297  140.4705  168.6700 N.ar    1  UNL1       -0.2628
     34 C         139.1383  140.6105  169.9938 C.2     1  UNL1        0.3169
     35 N         137.8709  139.8542  170.2616 N.am    1  UNL1       -0.3108
     36 O         139.7142  141.5068  171.0497 O.2     1  UNL1       -0.2494
     37 H         137.4928  139.2660  169.5686 H       1  UNL1        0.1467
     38 H         137.4171  139.9462  171.1305 H       1  UNL1        0.1467
@<TRIPOS>BOND
     1    15    16    1
     2    16    17    2
     3    16    18   am
     4     1    18    1
     5     1     2    1
     6     2     3    1
     7     3     4    1
     8     4     5    1
     9     5     6    1
    10     6    20    1
    11    20    21    1
    12    21    22   ar
    13    22    23   ar
    14    23    24   ar
    15    24    25   ar
    16    25    26   ar
    17    25    27   ar
    18    27    28   ar
    19    28    29   ar
    20    29    30   ar
    21    30    31   ar
    22    31    32   ar
    23    32    33   ar
    24    33    34   am
    25    34    35   am
    26    34    36    2
    27     6     7    1
    28     7     8    1
    29     3     9    1
    30     9    10   ar
    31    10    11   ar
    32    11    12   ar
    33    12    13   ar
    34    13    14   ar
    35    14     1    1
    36     8     3    1
    37    14     9   ar
    38    26    21   ar
    39    32    27   ar
    40    33    24   ar
    41    18    19    1
    42    35    37    1
    43    35    38    1
@<TRIPOS>MOLECULE
*****
 38 43 0 0 0
SMALL
GASTEIGER

@<TRIPOS>ATOM
      1 C         143.2657  134.8456  156.2656 C.3     1  UNL1        0.0941
      2 C         142.7205  136.0889  156.9037 C.3     1  UNL1        0.0282
      3 C         141.6159  136.6105  156.0331 C.3     1  UNL1        0.0232
      4 C         141.8693  137.4377  157.2585 C.3     1  UNL1        0.0215
      5 C         141.0467  138.6647  157.5184 C.3     1  UNL1        0.0727
      6 N         139.9705  139.0646  156.5529 N.3     1  UNL1       -0.2689
      7 C         139.7171  138.2374  155.3276 C.3     1  UNL1        0.0727
      8 C         140.5398  137.0104  155.0677 C.3     1  UNL1        0.0215
      9 C         141.4784  135.6896  154.8570 C.ar    1  UNL1       -0.0251
     10 C         140.5565  135.7034  153.6739 C.ar    1  UNL1       -0.0045
     11 C         140.6542  134.6265  152.6343 C.ar    1  UNL1       -0.0003
     12 C         141.6739  133.5357  152.7780 C.ar    1  UNL1       -0.0003
     13 C         142.5958  133.5220  153.9611 C.ar    1  UNL1       -0.0030
     14 C         142.4981  134.5989  155.0007 C.ar    1  UNL1       -0.0085
     15 C         145.2136  131.7706  157.8466 C.3     1  UNL1        0.0946
     16 C         144.0969  132.6183  157.3134 C.2     1  UNL1        0.2232
     17 O         142.6945  132.0863  157.2950 O.2     1  UNL1       -0.2751
     18 N         144.3825  133.9979  156.7987 N.am    1  UNL1       -0.3022
     19 H         145.3029  134.3471  156.8109 H       1  UNL1        0.1497
     20 C         139.1478  140.2916  156.8129 C.3     1  UNL1        0.0991
     21 C         138.8923  140.7387  158.2217 C.ar    1  UNL1       -0.0060
     22 C         138.5486  142.1714  158.5033 C.ar    1  UNL1       -0.0014
     23 C         138.2931  142.6185  159.9122 C.ar    1  UNL1        0.0174
     24 C         138.3813  141.6329  161.0394 C.ar    1  UNL1        0.0680
     25 C         138.7250  140.2002  160.7579 C.ar    1  UNL1        0.0174
     26 C         138.9805  139.7531  159.3491 C.ar    1  UNL1       -0.0014
     27 C         138.7394  139.4617  162.0635 C.ar    1  UNL1        0.0176
     28 C         139.0140  138.0265  162.4018 C.ar    1  UNL1        0.0015
     29 C         138.9539  137.5675  163.8286 C.ar    1  UNL1        0.0001
     30 C         138.6191  138.5438  164.9170 C.ar    1  UNL1        0.0015
     31 C         138.3444  139.9790  164.5786 C.ar    1  UNL1        0.0177
     32 C         138.4045  140.4380  163.1519 C.ar    1  UNL1        0.0680
     33 N         138.1833  141.7798  162.5190 N.ar    1  UNL1       -0.2628
     34 C         137.8266  143.0463  163.2393 C.2     1  UNL1        0.3169
     35 N         137.6358  144.3191  162.4687 N.am    1  UNL1       -0.3108
     36 O         137.6606  143.0401  164.7300 O.2     1  UNL1       -0.2494
     37 H         137.7447  144.3232  161.4903 H       1  UNL1        0.1467
     38 H         137.4017  145.1503  162.9415 H       1  UNL1        0.1467
@<TRIPOS>BOND
     1    15    16    1
     2    16    17    2
     3    16    18   am
     4     1    18    1
     5     1     2    1
     6     2     3    1
     7     3     4    1
     8     4     5    1
     9     5     6    1
    10     6    20    1
    11    20    21    1
    12    21    22   ar
    13    22    23   ar
    14    23    24   ar
    15    24    25   ar
    16    25    26   ar
    17    25    27   ar
    18    27    28   ar
    19    28    29   ar
    20    29    30   ar
    21    30    31   ar
    22    31    32   ar
    23    32    33   ar
    24    33    34   am
    25    34    35   am
    26    34    36    2
    27     6     7    1
    28     7     8    1
    29     3     9    1
    30     9    10   ar
    31    10    11   ar
    32    11    12   ar
    33    12    13   ar
    34    13    14   ar
    35    14     1    1
    36     8     3    1
    37    14     9   ar
    38    26    21   ar
    39    32    27   ar
    40    33    24   ar
    41    18    19    1
    42    35    37    1
    43    35    38    1
@<TRIPOS>MOLECULE
*****
 38 43 0 0 0
SMALL
GASTEIGER

@<TRIPOS>ATOM
      1 C         141.7920  132.4929  154.0095 C.3     1  UNL1        0.0941
      2 C         141.3233  133.8795  154.3380 C.3     1  UNL1        0.0282
      3 C         142.1716  134.4020  155.4594 C.3     1  UNL1        0.0232
      4 C         141.1246  135.3662  154.9860 C.3     1  UNL1        0.0215
      5 C         141.0015  136.7154  155.6298 C.3     1  UNL1        0.0727
      6 N         141.9254  137.1004  156.7470 N.3     1  UNL1       -0.2689
      7 C         142.9724  136.1362  157.2204 C.3     1  UNL1        0.0727
      8 C         143.0955  134.7871  156.5766 C.3     1  UNL1        0.0215
      9 C         143.1645  133.3384  155.8239 C.ar    1  UNL1       -0.0251
     10 C         144.2520  133.2919  156.8560 C.ar    1  UNL1       -0.0045
     11 C         145.1049  132.0655  156.9921 C.ar    1  UNL1       -0.0003
     12 C         144.8703  130.8856  156.0959 C.ar    1  UNL1       -0.0003
     13 C         143.7829  130.9322  155.0639 C.ar    1  UNL1       -0.0030
     14 C         142.9300  132.1586  154.9278 C.ar    1  UNL1       -0.0085
     15 C         139.5827  129.7125  152.2381 C.3     1  UNL1        0.0946
     16 C         140.1520  130.6075  153.2987 C.2     1  UNL1        0.2232
     17 O         139.6505  130.5119  154.7092 O.2     1  UNL1       -0.2751
     18 N         141.2227  131.5980  152.9489 N.am    1  UNL1       -0.3022
     19 H         141.5519  131.6606  152.0231 H       1  UNL1        0.1497
     20 C         141.8023  138.4497  157.3908 C.3     1  UNL1        0.0991
     21 C         142.1144  138.6164  158.8484 C.ar    1  UNL1       -0.0060
     22 C         143.4743  139.0834  159.2756 C.ar    1  UNL1       -0.0014
     23 C         143.7864  139.2502  160.7334 C.ar    1  UNL1        0.0174
     24 C         142.7386  138.9500  161.7638 C.ar    1  UNL1        0.0680
     25 C         141.3786  138.4830  161.3366 C.ar    1  UNL1        0.0174
     26 C         141.0665  138.3162  159.8790 C.ar    1  UNL1       -0.0014
     27 C         140.5544  138.2654  162.5709 C.ar    1  UNL1        0.0176
     28 C         139.1393  137.8075  162.7649 C.ar    1  UNL1        0.0015
     29 C         138.5747  137.6820  164.1489 C.ar    1  UNL1        0.0001
     30 C         139.4252  138.0145  165.3388 C.ar    1  UNL1        0.0015
     31 C         140.8403  138.4725  165.1448 C.ar    1  UNL1        0.0177
     32 C         141.4049  138.5979  163.7608 C.ar    1  UNL1        0.0680
     33 N         142.7548  139.0210  163.2620 N.ar    1  UNL1       -0.2628
     34 C         143.9169  139.4413  164.1122 C.2     1  UNL1        0.3169
     35 N         145.2118  139.8399  163.4684 N.am    1  UNL1       -0.3108
     36 O         143.7842  139.4631  165.6062 O.2     1  UNL1       -0.2494
     37 H         145.2989  139.8257  162.4879 H       1  UNL1        0.1467
     38 H         145.9745  140.1158  164.0264 H       1  UNL1        0.1467
@<TRIPOS>BOND
     1    15    16    1
     2    16    17    2
     3    16    18   am
     4     1    18    1
     5     1     2    1
     6     2     3    1
     7     3     4    1
     8     4     5    1
     9     5     6    1
    10     6    20    1
    11    20    21    1
    12    21    22   ar
    13    22    23   ar
    14    23    24   ar
    15    24    25   ar
    16    25    26   ar
    17    25    27   ar
    18    27    28   ar
    19    28    29   ar
    20    29    30   ar
    21    30    31   ar
    22    31    32   ar
    23    32    33   ar
    24    33    34   am
    25    34    35   am
    26    34    36    2
    27     6     7    1
    28     7     8    1
    29     3     9    1
    30     9    10   ar
    31    10    11   ar
    32    11    12   ar
    33    12    13   ar
    34    13    14   ar
    35    14     1    1
    36     8     3    1
    37    14     9   ar
    38    26    21   ar
    39    32    27   ar
    40    33    24   ar
    41    18    19    1
    42    35    37    1
    43    35    38    1
@<TRIPOS>MOLECULE
*****
 38 43 0 0 0
SMALL
GASTEIGER

@<TRIPOS>ATOM
      1 C         138.6114  139.8549  169.6032 C.3     1  UNL1        0.0941
      2 C         138.3451  139.5470  168.1594 C.3     1  UNL1        0.0282
      3 C         139.6301  139.7175  167.4045 C.3     1  UNL1        0.0232
      4 C         138.4703  139.3019  166.5489 C.3     1  UNL1        0.0215
      5 C         138.6613  139.0954  165.0755 C.3     1  UNL1        0.0727
      6 N         140.0121  139.3046  164.4577 N.3     1  UNL1       -0.2689
      7 C         141.1718  139.7202  165.3133 C.3     1  UNL1        0.0727
      8 C         140.9808  139.9266  166.7867 C.3     1  UNL1        0.0215
      9 C         140.6905  140.1307  168.3817 C.ar    1  UNL1       -0.0251
     10 C         142.1480  140.4406  168.2097 C.ar    1  UNL1       -0.0045
     11 C         142.9760  140.8354  169.3965 C.ar    1  UNL1       -0.0003
     12 C         142.3464  140.9203  170.7553 C.ar    1  UNL1       -0.0003
     13 C         140.8889  140.6104  170.9273 C.ar    1  UNL1       -0.0030
     14 C         140.0609  140.2156  169.7405 C.ar    1  UNL1       -0.0085
     15 C         135.5245  138.7178  171.8230 C.3     1  UNL1        0.0946
     16 C         136.5310  138.7627  170.7117 C.2     1  UNL1        0.2232
     17 O         136.4635  137.7605  169.5976 O.2     1  UNL1       -0.2751
     18 N         137.6049  139.8099  170.7145 N.am    1  UNL1       -0.3022
     19 H         137.6492  140.4677  171.4456 H       1  UNL1        0.1497
     20 C         140.2030  139.0981  162.9843 C.3     1  UNL1        0.0991
     21 C         140.1971  140.2755  162.0550 C.ar    1  UNL1       -0.0060
     22 C         141.0282  141.4838  162.3700 C.ar    1  UNL1       -0.0014
     23 C         141.0223  142.6612  161.4406 C.ar    1  UNL1        0.0174
     24 C         140.1852  142.6303  160.1963 C.ar    1  UNL1        0.0680
     25 C         139.3541  141.4220  159.8813 C.ar    1  UNL1        0.0174
     26 C         139.3601  140.2446  160.8106 C.ar    1  UNL1       -0.0014
     27 C         138.6345  141.6782  158.5904 C.ar    1  UNL1        0.0176
     28 C         137.6773  140.8436  157.7921 C.ar    1  UNL1        0.0015
     29 C         137.1064  141.3756  156.5111 C.ar    1  UNL1        0.0001
     30 C         137.4927  142.7422  156.0283 C.ar    1  UNL1        0.0015
     31 C         138.4499  143.5768  156.8266 C.ar    1  UNL1        0.0177
     32 C         139.0208  143.0448  158.1075 C.ar    1  UNL1        0.0680
     33 N         139.9792  143.6332  159.1001 N.ar    1  UNL1       -0.2628
     34 C         140.6192  144.9870  159.0119 C.2     1  UNL1        0.3169
     35 N         141.5625  145.4420  160.0858 N.am    1  UNL1       -0.3108
     36 O         140.3160  145.8857  157.8499 O.2     1  UNL1       -0.2494
     37 H         141.7615  144.8521  160.8484 H       1  UNL1        0.1467
     38 H         141.9826  146.3305  160.0279 H       1  UNL1        0.1467
@<TRIPOS>BOND
     1    15    16    1
     2    16    17    2
     3    16    18   am
     4     1    18    1
     5     1     2    1
     6     2     3    1
     7     3     4    1
     8     4     5    1
     9     5     6    1
    10     6    20    1
    11    20    21    1
    12    21    22   ar
    13    22    23   ar
    14    23    24   ar
    15    24    25   ar
    16    25    26   ar
    17    25    27   ar
    18    27    28   ar
    19    28    29   ar
    20    29    30   ar
    21    30    31   ar
    22    31    32   ar
    23    32    33   ar
    24    33    34   am
    25    34    35   am
    26    34    36    2
    27     6     7    1
    28     7     8    1
    29     3     9    1
    30     9    10   ar
    31    10    11   ar
    32    11    12   ar
    33    12    13   ar
    34    13    14   ar
    35    14     1    1
    36     8     3    1
    37    14     9   ar
    38    26    21   ar
    39    32    27   ar
    40    33    24   ar
    41    18    19    1
    42    35    37    1
    43    35    38    1
@<TRIPOS>MOLECULE
*****
 38 43 0 0 0
SMALL
GASTEIGER

@<TRIPOS>ATOM
      1 C         138.4970  139.8215  169.7148 C.3     1  UNL1        0.0941
      2 C         138.2148  139.5107  168.2746 C.3     1  UNL1        0.0282
      3 C         139.4795  139.7267  167.4974 C.3     1  UNL1        0.0232
      4 C         138.3187  139.2763  166.6610 C.3     1  UNL1        0.0215
      5 C         138.4896  139.0822  165.1835 C.3     1  UNL1        0.0727
      6 N         139.8213  139.3385  164.5424 N.3     1  UNL1       -0.2689
      7 C         140.9820  139.7889  165.3789 C.3     1  UNL1        0.0727
      8 C         140.8111  139.9830  166.8564 C.3     1  UNL1        0.0215
      9 C         140.5432  140.1710  168.4572 C.ar    1  UNL1       -0.0251
     10 C         141.9864  140.5297  168.2604 C.ar    1  UNL1       -0.0045
     11 C         142.8223  140.9470  169.4339 C.ar    1  UNL1       -0.0003
     12 C         142.2150  141.0055  170.8043 C.ar    1  UNL1       -0.0003
     13 C         140.7720  140.6468  171.0011 C.ar    1  UNL1       -0.0030
     14 C         139.9361  140.2295  169.8276 C.ar    1  UNL1       -0.0085
     15 C         135.4651  138.5983  171.9645 C.3     1  UNL1        0.0946
     16 C         136.4492  138.6811  170.8355 C.2     1  UNL1        0.2232
     17 O         136.3696  137.7063  169.6982 O.2     1  UNL1       -0.2751
     18 N         137.5129  139.7387  170.8438 N.am    1  UNL1       -0.3022
     19 H         137.5652  140.3784  171.5903 H       1  UNL1        0.1497
     20 C         139.9921  139.1444  163.0648 C.3     1  UNL1        0.0991
     21 C         140.4250  140.2929  162.2026 C.ar    1  UNL1       -0.0060
     22 C         139.8612  141.6626  162.4393 C.ar    1  UNL1       -0.0014
     23 C         140.2941  142.8112  161.5770 C.ar    1  UNL1        0.0174
     24 C         141.2907  142.5900  160.4780 C.ar    1  UNL1        0.0680
     25 C         141.8544  141.2202  160.2413 C.ar    1  UNL1        0.0174
     26 C         141.4216  140.0717  161.1035 C.ar    1  UNL1       -0.0014
     27 C         142.8135  141.3062  159.0911 C.ar    1  UNL1        0.0176
     28 C         143.6642  140.2727  158.4143 C.ar    1  UNL1        0.0015
     29 C         144.5439  140.6620  157.2634 C.ar    1  UNL1        0.0001
     30 C         144.5729  142.0848  156.7894 C.ar    1  UNL1        0.0015
     31 C         143.7222  143.1183  157.4662 C.ar    1  UNL1        0.0177
     32 C         142.8426  142.7290  158.6171 C.ar    1  UNL1        0.0680
     33 N         141.9014  143.5224  159.4742 N.ar    1  UNL1       -0.2628
     34 C         141.6203  144.9906  159.3495 C.2     1  UNL1        0.3169
     35 N         140.6491  145.6502  160.2831 N.am    1  UNL1       -0.3108
     36 O         142.3103  145.7991  158.2911 O.2     1  UNL1       -0.2494
     37 H         140.1962  145.1195  160.9778 H       1  UNL1        0.1467
     38 H         140.4646  146.6138  160.2013 H       1  UNL1        0.1467
@<TRIPOS>BOND
     1    15    16    1
     2    16    17    2
     3    16    18   am
     4     1    18    1
     5     1     2    1
     6     2     3    1
     7     3     4    1
     8     4     5    1
     9     5     6    1
    10     6    20    1
    11    20    21    1
    12    21    22   ar
    13    22    23   ar
    14    23    24   ar
    15    24    25   ar
    16    25    26   ar
    17    25    27   ar
    18    27    28   ar
    19    28    29   ar
    20    29    30   ar
    21    30    31   ar
    22    31    32   ar
    23    32    33   ar
    24    33    34   am
    25    34    35   am
    26    34    36    2
    27     6     7    1
    28     7     8    1
    29     3     9    1
    30     9    10   ar
    31    10    11   ar
    32    11    12   ar
    33    12    13   ar
    34    13    14   ar
    35    14     1    1
    36     8     3    1
    37    14     9   ar
    38    26    21   ar
    39    32    27   ar
    40    33    24   ar
    41    18    19    1
    42    35    37    1
    43    35    38    1
@<TRIPOS>MOLECULE
*****
 38 43 0 0 0
SMALL
GASTEIGER

@<TRIPOS>ATOM
      1 C         141.8020  132.3391  153.7511 C.3     1  UNL1        0.0941
      2 C         141.4614  133.7521  154.1220 C.3     1  UNL1        0.0282
      3 C         142.4056  134.1881  155.2030 C.3     1  UNL1        0.0232
      4 C         141.4141  135.2385  154.7988 C.3     1  UNL1        0.0215
      5 C         141.4312  136.5820  155.4655 C.3     1  UNL1        0.0727
      6 N         142.4397  136.8751  156.5365 N.3     1  UNL1       -0.2689
      7 C         143.4312  135.8247  156.9407 C.3     1  UNL1        0.0727
      8 C         143.4141  134.4811  156.2740 C.3     1  UNL1        0.0215
      9 C         143.3298  133.0445  155.5001 C.ar    1  UNL1       -0.0251
     10 C         144.4628  132.8961  156.4719 C.ar    1  UNL1       -0.0045
     11 C         145.2228  131.6050  156.5463 C.ar    1  UNL1       -0.0003
     12 C         144.8497  130.4624  155.6489 C.ar    1  UNL1       -0.0003
     13 C         143.7168  130.6108  154.6773 C.ar    1  UNL1       -0.0030
     14 C         142.9568  131.9018  154.6028 C.ar    1  UNL1       -0.0085
     15 C         139.3478  129.7084  152.0761 C.3     1  UNL1        0.0946
     16 C         140.0402  130.5383  153.1161 C.2     1  UNL1        0.2232
     17 O         139.6635  130.3974  154.5612 O.2     1  UNL1       -0.2751
     18 N         141.1095  131.5092  152.7111 N.am    1  UNL1       -0.3022
     19 H         141.3568  131.6017  151.7626 H       1  UNL1        0.1497
     20 C         142.4567  138.2187  157.2032 C.3     1  UNL1        0.0991
     21 C         141.7446  138.4174  158.5084 C.ar    1  UNL1       -0.0060
     22 C         140.2499  138.5401  158.5361 C.ar    1  UNL1       -0.0014
     23 C         139.5378  138.7388  159.8413 C.ar    1  UNL1        0.0174
     24 C         140.3204  138.8148  161.1187 C.ar    1  UNL1        0.0680
     25 C         141.8151  138.6921  161.0909 C.ar    1  UNL1        0.0174
     26 C         142.5272  138.4934  159.7858 C.ar    1  UNL1       -0.0014
     27 C         142.3157  138.8050  162.5004 C.ar    1  UNL1        0.0176
     28 C         143.6978  138.7575  163.0815 C.ar    1  UNL1        0.0015
     29 C         143.8945  138.9023  164.5615 C.ar    1  UNL1        0.0001
     30 C         142.7092  139.0948  165.4603 C.ar    1  UNL1        0.0015
     31 C         141.3272  139.1424  164.8792 C.ar    1  UNL1        0.0177
     32 C         141.1304  138.9975  163.3993 C.ar    1  UNL1        0.0680
     33 N         139.8973  139.0035  162.5454 N.ar    1  UNL1       -0.2628
     34 C         138.4883  139.1692  163.0325 C.2     1  UNL1        0.3169
     35 N         137.3503  139.1542  162.0554 N.am    1  UNL1       -0.3108
     36 O         138.2173  139.3498  164.4967 O.2     1  UNL1       -0.2494
     37 H         137.5281  139.0357  161.0944 H       1  UNL1        0.1467
     38 H         136.4255  139.2630  162.3752 H       1  UNL1        0.1467
@<TRIPOS>BOND
     1    15    16    1
     2    16    17    2
     3    16    18   am
     4     1    18    1
     5     1     2    1
     6     2     3    1
     7     3     4    1
     8     4     5    1
     9     5     6    1
    10     6    20    1
    11    20    21    1
    12    21    22   ar
    13    22    23   ar
    14    23    24   ar
    15    24    25   ar
    16    25    26   ar
    17    25    27   ar
    18    27    28   ar
    19    28    29   ar
    20    29    30   ar
    21    30    31   ar
    22    31    32   ar
    23    32    33   ar
    24    33    34   am
    25    34    35   am
    26    34    36    2
    27     6     7    1
    28     7     8    1
    29     3     9    1
    30     9    10   ar
    31    10    11   ar
    32    11    12   ar
    33    12    13   ar
    34    13    14   ar
    35    14     1    1
    36     8     3    1
    37    14     9   ar
    38    26    21   ar
    39    32    27   ar
    40    33    24   ar
    41    18    19    1
    42    35    37    1
    43    35    38    1
@<TRIPOS>MOLECULE
*****
 38 43 0 0 0
SMALL
GASTEIGER

@<TRIPOS>ATOM
      1 C         143.9957  132.1148  155.6116 C.3     1  UNL1        0.0941
      2 C         143.8279  133.3380  156.4636 C.3     1  UNL1        0.0282
      3 C         142.9729  134.3137  155.7104 C.3     1  UNL1        0.0232
      4 C         143.4132  134.8021  157.0586 C.3     1  UNL1        0.0215
      5 C         142.9927  136.1596  157.5385 C.3     1  UNL1        0.0727
      6 N         142.1319  137.0286  156.6703 N.3     1  UNL1       -0.2689
      7 C         141.6916  136.5402  155.3222 C.3     1  UNL1        0.0727
      8 C         142.1121  135.1827  154.8422 C.3     1  UNL1        0.0215
      9 C         142.6124  133.6935  154.3930 C.ar    1  UNL1       -0.0251
     10 C         141.7902  134.1907  153.2412 C.ar    1  UNL1       -0.0045
     11 C         141.6000  133.3289  152.0282 C.ar    1  UNL1       -0.0003
     12 C         142.2321  131.9699  151.9672 C.ar    1  UNL1       -0.0003
     13 C         143.0543  131.4728  153.1190 C.ar    1  UNL1       -0.0030
     14 C         143.2445  132.3345  154.3320 C.ar    1  UNL1       -0.0085
     15 C         144.8417  128.3880  156.6817 C.3     1  UNL1        0.0946
     16 C         144.0600  129.6154  156.3178 C.2     1  UNL1        0.2232
     17 O         142.5608  129.5708  156.2964 O.2     1  UNL1       -0.2751
     18 N         144.7774  130.8874  155.9754 N.am    1  UNL1       -0.3022
     19 H         145.7614  130.9167  155.9895 H       1  UNL1        0.1497
     20 C         141.7114  138.3862  157.1503 C.3     1  UNL1        0.0991
     21 C         142.2921  138.9479  158.4141 C.ar    1  UNL1       -0.0060
     22 C         143.2583  140.0936  158.3510 C.ar    1  UNL1       -0.0014
     23 C         143.8390  140.6554  159.6149 C.ar    1  UNL1        0.0174
     24 C         143.4536  140.0715  160.9417 C.ar    1  UNL1        0.0680
     25 C         142.4874  138.9258  161.0047 C.ar    1  UNL1        0.0174
     26 C         141.9067  138.3641  159.7410 C.ar    1  UNL1       -0.0014
     27 C         142.2961  138.5597  162.4467 C.ar    1  UNL1        0.0176
     28 C         141.4593  137.5079  163.1127 C.ar    1  UNL1        0.0015
     29 C         141.4704  137.3755  164.6068 C.ar    1  UNL1        0.0001
     30 C         142.3183  138.2948  165.4349 C.ar    1  UNL1        0.0015
     31 C         143.1551  139.3466  164.7689 C.ar    1  UNL1        0.0177
     32 C         143.1440  139.4790  163.2749 C.ar    1  UNL1        0.0680
     33 N         143.8593  140.4133  162.3447 N.ar    1  UNL1       -0.2628
     34 C         144.8131  141.4990  162.7469 C.2     1  UNL1        0.3169
     35 N         145.4557  142.3589  161.6992 N.am    1  UNL1       -0.3108
     36 O         145.1243  141.7247  164.1968 O.2     1  UNL1       -0.2494
     37 H         145.2514  142.2107  160.7476 H       1  UNL1        0.1467
     38 H         146.0816  143.0714  161.9632 H       1  UNL1        0.1467
@<TRIPOS>BOND
     1    15    16    1
     2    16    17    2
     3    16    18   am
     4     1    18    1
     5     1     2    1
     6     2     3    1
     7     3     4    1
     8     4     5    1
     9     5     6    1
    10     6    20    1
    11    20    21    1
    12    21    22   ar
    13    22    23   ar
    14    23    24   ar
    15    24    25   ar
    16    25    26   ar
    17    25    27   ar
    18    27    28   ar
    19    28    29   ar
    20    29    30   ar
    21    30    31   ar
    22    31    32   ar
    23    32    33   ar
    24    33    34   am
    25    34    35   am
    26    34    36    2
    27     6     7    1
    28     7     8    1
    29     3     9    1
    30     9    10   ar
    31    10    11   ar
    32    11    12   ar
    33    12    13   ar
    34    13    14   ar
    35    14     1    1
    36     8     3    1
    37    14     9   ar
    38    26    21   ar
    39    32    27   ar
    40    33    24   ar
    41    18    19    1
    42    35    37    1
    43    35    38    1
