@<TRIPOS>MOLECULE
*****
 34 37 0 0 0
SMALL
GASTEIGER

@<TRIPOS>ATOM
      1 C         141.6356  143.6872  162.0668 C.3     1  UNL1        0.1751
      2 C         141.9338  143.9283  160.6166 C.ar    1  UNL1        0.0089
      3 C         142.8664  143.2500  159.6574 C.ar    1  UNL1       -0.0021
      4 C         142.9530  143.7207  158.2359 C.ar    1  UNL1       -0.0003
      5 C         142.1070  144.8698  157.7735 C.ar    1  UNL1        0.0001
      6 C         141.1743  145.5482  158.7327 C.ar    1  UNL1        0.0043
      7 C         141.0878  145.0774  160.1542 C.ar    1  UNL1        0.0516
      8 C         140.2667  145.5465  161.3186 C.2     1  UNL1        0.2493
      9 O         139.2802  146.6764  161.3036 O.2     1  UNL1       -0.2699
     10 N         140.6052  144.6873  162.5006 N.am    1  UNL1       -0.2657
     11 O         141.7393  141.2248  162.8886 O.2     1  UNL1       -0.2729
     12 C         142.2584  142.6314  162.9312 C.2     1  UNL1        0.2451
     13 N         143.4003  142.9822  163.8385 N.am    1  UNL1       -0.2988
     14 H         143.7411  143.9055  163.8665 H       1  UNL1        0.1498
     15 C         144.0231  141.9264  164.7029 C.3     1  UNL1        0.1164
     16 C         143.2788  141.3956  165.8921 C.ar    1  UNL1       -0.0026
     17 C         143.0660  139.9187  166.0457 C.ar    1  UNL1       -0.0029
     18 C         142.3216  139.3879  167.2349 C.ar    1  UNL1       -0.0043
     19 C         141.7899  140.3340  168.2705 C.ar    1  UNL1       -0.0138
     20 C         142.0027  141.8108  168.1168 C.ar    1  UNL1       -0.0043
     21 C         142.7471  142.3416  166.9276 C.ar    1  UNL1       -0.0029
     22 C         141.0455  139.8031  169.4596 C.3     1  UNL1        0.1297
     23 C         139.7172  140.3895  169.8359 C.3     1  UNL1        0.4017
     24 F         138.3889  140.9759  170.2123 F       1  UNL1       -0.1697
     25 F         139.0950  139.7561  168.6270 F       1  UNL1       -0.1697
     26 F         140.3394  141.0230  171.0449 F       1  UNL1       -0.1697
     27 C         140.0168  144.8071  163.8752 C.3     1  UNL1        0.1007
     28 C         138.7214  144.1235  164.1987 C.3     1  UNL1        0.0673
     29 C         138.6604  142.6264  164.2682 C.ar    1  UNL1        0.0607
     30 C         139.3238  141.9005  165.4009 C.ar    1  UNL1        0.0148
     31 C         139.2628  140.4033  165.4704 C.ar    1  UNL1        0.0028
     32 C         138.5383  139.6321  164.4071 C.ar    1  UNL1        0.0207
     33 C         137.8750  140.3580  163.2744 C.ar    1  UNL1        0.0984
     34 N         137.9360  141.8551  163.2050 N.ar    1  UNL1       -0.2481
@<TRIPOS>BOND
     1    11    12    2
     2    12    13   am
     3    13    15    1
     4    15    16    1
     5    16    17   ar
     6    17    18   ar
     7    18    19   ar
     8    19    22    1
     9    22    23    1
    10    23    24    1
    11    23    25    1
    12    23    26    1
    13    19    20   ar
    14    20    21   ar
    15    12     1    1
    16     1     2    1
    17     2     3   ar
    18     3     4   ar
    19     4     5   ar
    20     5     6   ar
    21     6     7   ar
    22     7     8    1
    23     8     9    2
    24     8    10   am
    25    10    27    1
    26    27    28    1
    27    28    29    1
    28    29    30   ar
    29    30    31   ar
    30    31    32   ar
    31    32    33   ar
    32    33    34   ar
    33    21    16   ar
    34    10     1    1
    35    34    29   ar
    36     7     2   ar
    37    13    14    1
@<TRIPOS>MOLECULE
*****
 34 37 0 0 0
SMALL
GASTEIGER

@<TRIPOS>ATOM
      1 C         139.6116  143.4291  160.6966 C.3     1  UNL1        0.1751
      2 C         139.2592  143.0668  159.2843 C.ar    1  UNL1        0.0089
      3 C         138.1613  142.2221  158.7090 C.ar    1  UNL1       -0.0021
      4 C         138.0578  142.0363  157.2242 C.ar    1  UNL1       -0.0003
      5 C         139.0522  142.6952  156.3147 C.ar    1  UNL1        0.0001
      6 C         140.1500  143.5399  156.8901 C.ar    1  UNL1        0.0043
      7 C         140.2535  143.7258  158.3749 C.ar    1  UNL1        0.0516
      8 C         141.2204  144.4953  159.2251 C.2     1  UNL1        0.2493
      9 O         142.3804  145.3058  158.7277 O.2     1  UNL1       -0.2699
     10 N         140.8237  144.3119  160.6601 N.am    1  UNL1       -0.2657
     11 O         137.6918  143.7616  162.4153 O.2     1  UNL1       -0.2729
     12 C         138.8802  142.9863  161.9291 C.2     1  UNL1        0.2451
     13 N         139.3374  141.7680  162.6755 N.am    1  UNL1       -0.2988
     14 H         140.1174  141.2591  162.3564 H       1  UNL1        0.1498
     15 C         138.6060  141.3252  163.9080 C.3     1  UNL1        0.1164
     16 C         139.2659  141.4322  165.2507 C.ar    1  UNL1       -0.0026
     17 C         139.7896  142.7551  165.7259 C.ar    1  UNL1       -0.0029
     18 C         140.4495  142.8620  167.0686 C.ar    1  UNL1       -0.0043
     19 C         140.5859  141.6460  167.9363 C.ar    1  UNL1       -0.0138
     20 C         140.0623  140.3231  167.4612 C.ar    1  UNL1       -0.0043
     21 C         139.4023  140.2162  166.1183 C.ar    1  UNL1       -0.0029
     22 C         141.2458  141.7530  169.2790 C.3     1  UNL1        0.1297
     23 C         142.6875  142.1556  169.3763 C.3     1  UNL1        0.4017
     24 F         144.1292  142.5582  169.4735 F       1  UNL1       -0.1697
     25 F         143.0957  140.8339  168.7961 F       1  UNL1       -0.1697
     26 F         142.2793  143.4772  169.9564 F       1  UNL1       -0.1697
     27 C         141.5173  144.9070  161.8495 C.3     1  UNL1        0.1007
     28 C         142.8707  144.4050  162.2573 C.3     1  UNL1        0.0673
     29 C         142.9892  143.3133  163.2791 C.ar    1  UNL1        0.0607
     30 C         143.5942  143.6040  164.6206 C.ar    1  UNL1        0.0148
     31 C         143.7127  142.5123  165.6424 C.ar    1  UNL1        0.0028
     32 C         143.2261  141.1298  165.3227 C.ar    1  UNL1        0.0207
     33 C         142.6211  140.8391  163.9813 C.ar    1  UNL1        0.0984
     34 N         142.5027  141.9308  162.9595 N.ar    1  UNL1       -0.2481
@<TRIPOS>BOND
     1    11    12    2
     2    12    13   am
     3    13    15    1
     4    15    16    1
     5    16    17   ar
     6    17    18   ar
     7    18    19   ar
     8    19    22    1
     9    22    23    1
    10    23    24    1
    11    23    25    1
    12    23    26    1
    13    19    20   ar
    14    20    21   ar
    15    12     1    1
    16     1     2    1
    17     2     3   ar
    18     3     4   ar
    19     4     5   ar
    20     5     6   ar
    21     6     7   ar
    22     7     8    1
    23     8     9    2
    24     8    10   am
    25    10    27    1
    26    27    28    1
    27    28    29    1
    28    29    30   ar
    29    30    31   ar
    30    31    32   ar
    31    32    33   ar
    32    33    34   ar
    33    21    16   ar
    34    10     1    1
    35    34    29   ar
    36     7     2   ar
    37    13    14    1
@<TRIPOS>MOLECULE
*****
 34 37 0 0 0
SMALL
GASTEIGER

@<TRIPOS>ATOM
      1 C         140.4930  138.7325  161.7396 C.3     1  UNL1        0.1751
      2 C         141.0323  138.5387  160.3533 C.ar    1  UNL1        0.0089
      3 C         142.3648  138.0669  159.8516 C.ar    1  UNL1       -0.0021
      4 C         142.6204  137.9731  158.3766 C.ar    1  UNL1       -0.0003
      5 C         141.5435  138.3511  157.4032 C.ar    1  UNL1        0.0001
      6 C         140.2110  138.8229  157.9049 C.ar    1  UNL1        0.0043
      7 C         139.9554  138.9167  159.3800 C.ar    1  UNL1        0.0516
      8 C         138.7505  139.3441  160.1647 C.2     1  UNL1        0.2493
      9 O         137.4430  139.8046  159.5916 O.2     1  UNL1       -0.2699
     10 N         139.0828  139.2303  161.6230 N.am    1  UNL1       -0.2657
     11 O         141.0274  137.1851  163.7570 O.2     1  UNL1       -0.2729
     12 C         141.2338  138.4739  163.0179 C.2     1  UNL1        0.2451
     13 N         142.1813  139.5043  163.5573 N.am    1  UNL1       -0.2988
     14 H         142.3168  140.3502  163.0723 H       1  UNL1        0.1498
     15 C         142.9222  139.2457  164.8357 C.3     1  UNL1        0.1164
     16 C         142.7039  140.1368  166.0224 C.ar    1  UNL1       -0.0026
     17 C         143.2909  141.5170  166.0421 C.ar    1  UNL1       -0.0029
     18 C         143.0726  142.4080  167.2288 C.ar    1  UNL1       -0.0043
     19 C         142.2671  141.9189  168.3959 C.ar    1  UNL1       -0.0138
     20 C         141.6801  140.5387  168.3763 C.ar    1  UNL1       -0.0043
     21 C         141.8984  139.6476  167.1894 C.ar    1  UNL1       -0.0029
     22 C         142.0488  142.8100  169.5826 C.3     1  UNL1        0.1297
     23 C         140.6732  142.9673  170.1595 C.3     1  UNL1        0.4017
     24 F         139.2975  143.1247  170.7363 F       1  UNL1       -0.1697
     25 F         140.2525  143.7412  168.9453 F       1  UNL1       -0.1697
     26 F         141.0938  142.1935  171.3737 F       1  UNL1       -0.1697
     27 C         138.1659  139.5569  162.7643 C.3     1  UNL1        0.1007
     28 C         137.5495  140.9207  162.8646 C.3     1  UNL1        0.0673
     29 C         138.1629  141.9570  163.7589 C.ar    1  UNL1        0.0607
     30 C         139.1754  141.5538  164.7897 C.ar    1  UNL1        0.0148
     31 C         139.7887  142.5901  165.6840 C.ar    1  UNL1        0.0028
     32 C         139.3896  144.0297  165.5475 C.ar    1  UNL1        0.0207
     33 C         138.3772  144.4328  164.5168 C.ar    1  UNL1        0.0984
     34 N         137.7638  143.3965  163.6225 N.ar    1  UNL1       -0.2481
@<TRIPOS>BOND
     1    11    12    2
     2    12    13   am
     3    13    15    1
     4    15    16    1
     5    16    17   ar
     6    17    18   ar
     7    18    19   ar
     8    19    22    1
     9    22    23    1
    10    23    24    1
    11    23    25    1
    12    23    26    1
    13    19    20   ar
    14    20    21   ar
    15    12     1    1
    16     1     2    1
    17     2     3   ar
    18     3     4   ar
    19     4     5   ar
    20     5     6   ar
    21     6     7   ar
    22     7     8    1
    23     8     9    2
    24     8    10   am
    25    10    27    1
    26    27    28    1
    27    28    29    1
    28    29    30   ar
    29    30    31   ar
    30    31    32   ar
    31    32    33   ar
    32    33    34   ar
    33    21    16   ar
    34    10     1    1
    35    34    29   ar
    36     7     2   ar
    37    13    14    1
@<TRIPOS>MOLECULE
*****
 34 37 0 0 0
SMALL
GASTEIGER

@<TRIPOS>ATOM
      1 C         140.3497  138.7046  161.1052 C.3     1  UNL1        0.1751
      2 C         141.0154  138.5074  159.7755 C.ar    1  UNL1        0.0089
      3 C         142.3621  137.9656  159.3979 C.ar    1  UNL1       -0.0021
      4 C         142.7610  137.8874  157.9541 C.ar    1  UNL1       -0.0003
      5 C         141.8133  138.3511  156.8879 C.ar    1  UNL1        0.0001
      6 C         140.4666  138.8930  157.2655 C.ar    1  UNL1        0.0043
      7 C         140.0676  138.9711  158.7094 C.ar    1  UNL1        0.0516
      8 C         138.8162  139.4549  159.3801 C.2     1  UNL1        0.2493
      9 O         137.6033  140.0065  158.6911 O.2     1  UNL1       -0.2699
     10 N         138.9905  139.2902  160.8608 N.am    1  UNL1       -0.2657
     11 O         140.7969  136.9908  163.0059 O.2     1  UNL1       -0.2729
     12 C         140.9396  138.3742  162.4441 C.2     1  UNL1        0.2451
     13 N         141.6724  139.4274  163.2214 N.am    1  UNL1       -0.2988
     14 H         141.7661  140.3354  162.8527 H       1  UNL1        0.1498
     15 C         142.2623  139.0970  164.5604 C.3     1  UNL1        0.1164
     16 C         141.7118  139.7360  165.8007 C.ar    1  UNL1       -0.0026
     17 C         142.6426  140.3432  166.8081 C.ar    1  UNL1       -0.0029
     18 C         142.0920  140.9822  168.0484 C.ar    1  UNL1       -0.0043
     19 C         140.6105  141.0141  168.2815 C.ar    1  UNL1       -0.0138
     20 C         139.6797  140.4069  167.2741 C.ar    1  UNL1       -0.0043
     21 C         140.2303  139.7679  166.0336 C.ar    1  UNL1       -0.0029
     22 C         140.0600  141.6531  169.5218 C.3     1  UNL1        0.1297
     23 C         140.3245  143.1033  169.7991 C.3     1  UNL1        0.4017
     24 F         140.5891  144.5535  170.0765 F       1  UNL1       -0.1697
     25 F         140.5726  142.7819  171.2431 F       1  UNL1       -0.1697
     26 F         140.0764  143.4247  168.3551 F       1  UNL1       -0.1697
     27 C         137.9826  139.6482  161.9125 C.3     1  UNL1        0.1007
     28 C         137.6796  141.0885  162.2016 C.3     1  UNL1        0.0673
     29 C         138.5783  141.8767  163.1077 C.ar    1  UNL1        0.0607
     30 C         138.0142  142.5481  164.3248 C.ar    1  UNL1        0.0148
     31 C         138.9130  143.3363  165.2309 C.ar    1  UNL1        0.0028
     32 C         140.3758  143.4532  164.9199 C.ar    1  UNL1        0.0207
     33 C         140.9398  142.7819  163.7029 C.ar    1  UNL1        0.0984
     34 N         140.0411  141.9937  162.7968 N.ar    1  UNL1       -0.2481
@<TRIPOS>BOND
     1    11    12    2
     2    12    13   am
     3    13    15    1
     4    15    16    1
     5    16    17   ar
     6    17    18   ar
     7    18    19   ar
     8    19    22    1
     9    22    23    1
    10    23    24    1
    11    23    25    1
    12    23    26    1
    13    19    20   ar
    14    20    21   ar
    15    12     1    1
    16     1     2    1
    17     2     3   ar
    18     3     4   ar
    19     4     5   ar
    20     5     6   ar
    21     6     7   ar
    22     7     8    1
    23     8     9    2
    24     8    10   am
    25    10    27    1
    26    27    28    1
    27    28    29    1
    28    29    30   ar
    29    30    31   ar
    30    31    32   ar
    31    32    33   ar
    32    33    34   ar
    33    21    16   ar
    34    10     1    1
    35    34    29   ar
    36     7     2   ar
    37    13    14    1
@<TRIPOS>MOLECULE
*****
 34 37 0 0 0
SMALL
GASTEIGER

@<TRIPOS>ATOM
      1 C         141.2675  140.3866  166.0199 C.3     1  UNL1        0.1751
      2 C         141.0624  140.3339  167.5049 C.ar    1  UNL1        0.0089
      3 C         140.0532  140.9863  168.4026 C.ar    1  UNL1       -0.0021
      4 C         140.0966  140.7422  169.8819 C.ar    1  UNL1       -0.0003
      5 C         141.1491  139.8457  170.4636 C.ar    1  UNL1        0.0001
      6 C         142.1583  139.1932  169.5659 C.ar    1  UNL1        0.0043
      7 C         142.1149  139.4373  168.0866 C.ar    1  UNL1        0.0516
      8 C         142.9705  138.9360  166.9611 C.2     1  UNL1        0.2493
      9 O         144.1438  138.0104  167.0902 O.2     1  UNL1       -0.2699
     10 N         142.4467  139.5227  165.6838 N.am    1  UNL1       -0.2657
     11 O         139.3683  140.4775  164.2494 O.2     1  UNL1       -0.2729
     12 C         140.4388  141.1665  165.0426 C.2     1  UNL1        0.2451
     13 N         140.6806  142.6355  164.8586 N.am    1  UNL1       -0.2988
     14 H         141.3831  143.0877  165.3793 H       1  UNL1        0.1498
     15 C         139.8518  143.4153  163.8813 C.3     1  UNL1        0.1164
     16 C         140.3738  143.6822  162.5007 C.ar    1  UNL1       -0.0026
     17 C         140.7555  142.5381  161.6089 C.ar    1  UNL1       -0.0029
     18 C         141.2774  142.8051  160.2283 C.ar    1  UNL1       -0.0043
     19 C         141.4178  144.2162  159.7393 C.ar    1  UNL1       -0.0138
     20 C         141.0362  145.3603  160.6310 C.ar    1  UNL1       -0.0043
     21 C         140.5142  145.0934  162.0118 C.ar    1  UNL1       -0.0029
     22 C         141.9398  144.4831  158.3586 C.3     1  UNL1        0.1297
     23 C         141.3020  145.5405  157.5070 C.3     1  UNL1        0.4017
     24 F         140.6643  146.5978  156.6554 F       1  UNL1       -0.1697
     25 F         142.5585  146.3566  157.5794 F       1  UNL1       -0.1697
     26 F         140.0456  144.7244  157.4347 F       1  UNL1       -0.1697
     27 C         143.0043  139.2869  164.3114 C.3     1  UNL1        0.1007
     28 C         144.2545  139.9935  163.8782 C.3     1  UNL1        0.0673
     29 C         144.2102  141.4526  163.5332 C.ar    1  UNL1        0.0607
     30 C         144.4874  141.8999  162.1284 C.ar    1  UNL1        0.0148
     31 C         144.4431  143.3590  161.7834 C.ar    1  UNL1        0.0028
     32 C         144.1215  144.3708  162.8430 C.ar    1  UNL1        0.0207
     33 C         143.8442  143.9235  164.2477 C.ar    1  UNL1        0.0984
     34 N         143.8886  142.4644  164.5927 N.ar    1  UNL1       -0.2481
@<TRIPOS>BOND
     1    11    12    2
     2    12    13   am
     3    13    15    1
     4    15    16    1
     5    16    17   ar
     6    17    18   ar
     7    18    19   ar
     8    19    22    1
     9    22    23    1
    10    23    24    1
    11    23    25    1
    12    23    26    1
    13    19    20   ar
    14    20    21   ar
    15    12     1    1
    16     1     2    1
    17     2     3   ar
    18     3     4   ar
    19     4     5   ar
    20     5     6   ar
    21     6     7   ar
    22     7     8    1
    23     8     9    2
    24     8    10   am
    25    10    27    1
    26    27    28    1
    27    28    29    1
    28    29    30   ar
    29    30    31   ar
    30    31    32   ar
    31    32    33   ar
    32    33    34   ar
    33    21    16   ar
    34    10     1    1
    35    34    29   ar
    36     7     2   ar
    37    13    14    1
@<TRIPOS>MOLECULE
*****
 34 37 0 0 0
SMALL
GASTEIGER

@<TRIPOS>ATOM
      1 C         142.1461  144.0753  161.7166 C.3     1  UNL1        0.1751
      2 C         142.1545  144.0821  160.2167 C.ar    1  UNL1        0.0089
      3 C         143.0248  143.3830  159.2147 C.ar    1  UNL1       -0.0021
      4 C         142.7911  143.5865  157.7471 C.ar    1  UNL1       -0.0003
      5 C         141.6872  144.4890  157.2814 C.ar    1  UNL1        0.0001
      6 C         140.8169  145.1880  158.2834 C.ar    1  UNL1        0.0043
      7 C         141.0506  144.9846  159.7510 C.ar    1  UNL1        0.0516
      8 C         140.3599  145.5356  160.9632 C.2     1  UNL1        0.2493
      9 O         139.1965  146.4824  160.9609 O.2     1  UNL1       -0.2699
     10 N         141.0370  144.9737  162.1780 N.am    1  UNL1       -0.2657
     11 O         144.3113  143.9679  163.1484 O.2     1  UNL1       -0.2729
     12 C         143.0824  143.3054  162.6001 C.2     1  UNL1        0.2451
     13 N         142.7898  141.8728  162.9353 N.am    1  UNL1       -0.2988
     14 H         141.9831  141.4380  162.5754 H       1  UNL1        0.1498
     15 C         143.7261  141.1029  163.8187 C.3     1  UNL1        0.1164
     16 C         143.3056  140.7247  165.2080 C.ar    1  UNL1       -0.0026
     17 C         142.8851  141.7871  166.1798 C.ar    1  UNL1       -0.0029
     18 C         142.4646  141.4087  167.5691 C.ar    1  UNL1       -0.0043
     19 C         142.4646  139.9679  167.9866 C.ar    1  UNL1       -0.0138
     20 C         142.8851  138.9055  167.0147 C.ar    1  UNL1       -0.0043
     21 C         143.3056  139.2839  165.6254 C.ar    1  UNL1       -0.0029
     22 C         142.0441  139.5897  169.3758 C.3     1  UNL1        0.1297
     23 C         143.0807  139.3064  170.4223 C.3     1  UNL1        0.4017
     24 F         144.1174  139.0232  171.4688 F       1  UNL1       -0.1697
     25 F         143.3704  140.7740  170.5325 F       1  UNL1       -0.1697
     26 F         142.7910  137.8388  170.3120 F       1  UNL1       -0.1697
     27 C         140.6694  145.2598  163.6039 C.3     1  UNL1        0.1007
     28 C         139.3750  144.7471  164.1621 C.3     1  UNL1        0.0673
     29 C         138.9870  143.3124  163.9600 C.ar    1  UNL1        0.0607
     30 C         137.6546  142.9732  163.3602 C.ar    1  UNL1        0.0148
     31 C         137.2665  141.5384  163.1580 C.ar    1  UNL1        0.0028
     32 C         138.2108  140.4429  163.5557 C.ar    1  UNL1        0.0207
     33 C         139.5432  140.7821  164.1555 C.ar    1  UNL1        0.0984
     34 N         139.9312  142.2169  164.3576 N.ar    1  UNL1       -0.2481
@<TRIPOS>BOND
     1    11    12    2
     2    12    13   am
     3    13    15    1
     4    15    16    1
     5    16    17   ar
     6    17    18   ar
     7    18    19   ar
     8    19    22    1
     9    22    23    1
    10    23    24    1
    11    23    25    1
    12    23    26    1
    13    19    20   ar
    14    20    21   ar
    15    12     1    1
    16     1     2    1
    17     2     3   ar
    18     3     4   ar
    19     4     5   ar
    20     5     6   ar
    21     6     7   ar
    22     7     8    1
    23     8     9    2
    24     8    10   am
    25    10    27    1
    26    27    28    1
    27    28    29    1
    28    29    30   ar
    29    30    31   ar
    30    31    32   ar
    31    32    33   ar
    32    33    34   ar
    33    21    16   ar
    34    10     1    1
    35    34    29   ar
    36     7     2   ar
    37    13    14    1
@<TRIPOS>MOLECULE
*****
 34 37 0 0 0
SMALL
GASTEIGER

@<TRIPOS>ATOM
      1 C         138.9032  141.8616  161.1799 C.3     1  UNL1        0.1751
      2 C         139.5528  143.1054  160.6497 C.ar    1  UNL1        0.0089
      3 C         139.8759  144.4213  161.2930 C.ar    1  UNL1       -0.0021
      4 C         140.5425  145.5025  160.4952 C.ar    1  UNL1       -0.0003
      5 C         140.8860  145.2677  159.0540 C.ar    1  UNL1        0.0001
      6 C         140.5629  143.9518  158.4107 C.ar    1  UNL1        0.0043
      7 C         139.8963  142.8706  159.2086 C.ar    1  UNL1        0.0516
      8 C         139.4590  141.4818  158.8482 C.2     1  UNL1        0.2493
      9 O         139.6091  140.8309  157.5051 O.2     1  UNL1       -0.2699
     10 N         138.8452  140.8582  160.0665 N.am    1  UNL1       -0.2657
     11 O         136.9248  141.5959  162.8429 O.2     1  UNL1       -0.2729
     12 C         138.3999  141.6572  162.5781 C.2     1  UNL1        0.2451
     13 N         139.3719  141.5142  163.7117 N.am    1  UNL1       -0.2988
     14 H         140.3401  141.5545  163.5380 H       1  UNL1        0.1498
     15 C         138.8686  141.3098  165.1099 C.3     1  UNL1        0.1164
     16 C         139.8338  141.2823  166.2578 C.ar    1  UNL1       -0.0026
     17 C         139.8639  140.1030  167.1843 C.ar    1  UNL1       -0.0029
     18 C         140.8291  140.0756  168.3322 C.ar    1  UNL1       -0.0043
     19 C         141.7642  141.2274  168.5536 C.ar    1  UNL1       -0.0138
     20 C         141.7341  142.4067  167.6271 C.ar    1  UNL1       -0.0043
     21 C         140.7688  142.4341  166.4792 C.ar    1  UNL1       -0.0029
     22 C         142.7294  141.1999  169.7015 C.3     1  UNL1        0.1297
     23 C         143.1237  142.4778  170.3807 C.3     1  UNL1        0.4017
     24 F         143.5179  143.7558  171.0600 F       1  UNL1       -0.1697
     25 F         144.4438  142.4487  169.6692 F       1  UNL1       -0.1697
     26 F         141.8035  142.5069  171.0923 F       1  UNL1       -0.1697
     27 C         138.2738  139.4742  160.1558 C.3     1  UNL1        0.1007
     28 C         139.1752  138.3067  160.4282 C.3     1  UNL1        0.0673
     29 C         139.6060  138.0034  161.8326 C.ar    1  UNL1        0.0607
     30 C         138.6109  138.0693  162.9531 C.ar    1  UNL1        0.0148
     31 C         139.0416  137.7660  164.3575 C.ar    1  UNL1        0.0028
     32 C         140.4675  137.3968  164.6415 C.ar    1  UNL1        0.0207
     33 C         141.4626  137.3309  163.5210 C.ar    1  UNL1        0.0984
     34 N         141.0318  137.6342  162.1166 N.ar    1  UNL1       -0.2481
@<TRIPOS>BOND
     1    11    12    2
     2    12    13   am
     3    13    15    1
     4    15    16    1
     5    16    17   ar
     6    17    18   ar
     7    18    19   ar
     8    19    22    1
     9    22    23    1
    10    23    24    1
    11    23    25    1
    12    23    26    1
    13    19    20   ar
    14    20    21   ar
    15    12     1    1
    16     1     2    1
    17     2     3   ar
    18     3     4   ar
    19     4     5   ar
    20     5     6   ar
    21     6     7   ar
    22     7     8    1
    23     8     9    2
    24     8    10   am
    25    10    27    1
    26    27    28    1
    27    28    29    1
    28    29    30   ar
    29    30    31   ar
    30    31    32   ar
    31    32    33   ar
    32    33    34   ar
    33    21    16   ar
    34    10     1    1
    35    34    29   ar
    36     7     2   ar
    37    13    14    1
@<TRIPOS>MOLECULE
*****
 34 37 0 0 0
SMALL
GASTEIGER

@<TRIPOS>ATOM
      1 C         140.3870  142.0663  160.7812 C.3     1  UNL1        0.1751
      2 C         141.0281  141.7260  159.4685 C.ar    1  UNL1        0.0089
      3 C         142.3832  142.0335  158.9037 C.ar    1  UNL1       -0.0021
      4 C         142.7511  141.5508  157.5320 C.ar    1  UNL1       -0.0003
      5 C         141.7640  140.7607  156.7251 C.ar    1  UNL1        0.0001
      6 C         140.4088  140.4532  157.2899 C.ar    1  UNL1        0.0043
      7 C         140.0409  140.9358  158.6616 C.ar    1  UNL1        0.0516
      8 C         138.7897  140.7878  159.4756 C.2     1  UNL1        0.2493
      9 O         137.5435  140.0676  159.0537 O.2     1  UNL1       -0.2699
     10 N         139.0036  141.4865  160.7856 N.am    1  UNL1       -0.2657
     11 O         140.5984  144.2667  162.1463 O.2     1  UNL1       -0.2729
     12 C         141.0185  142.8491  161.8941 C.2     1  UNL1        0.2451
     13 N         142.0702  142.2140  162.7549 N.am    1  UNL1       -0.2988
     14 H         142.3460  141.2836  162.5893 H       1  UNL1        0.1498
     15 C         142.7017  142.9968  163.8678 C.3     1  UNL1        0.1164
     16 C         142.2568  142.7797  165.2837 C.ar    1  UNL1       -0.0026
     17 C         140.8340  143.0522  165.6729 C.ar    1  UNL1       -0.0029
     18 C         140.3891  142.8351  167.0889 C.ar    1  UNL1       -0.0043
     19 C         141.3670  142.3455  168.1156 C.ar    1  UNL1       -0.0138
     20 C         142.7897  142.0731  167.7264 C.ar    1  UNL1       -0.0043
     21 C         143.2346  142.2902  166.3104 C.ar    1  UNL1       -0.0029
     22 C         140.9220  142.1285  169.5315 C.3     1  UNL1        0.1297
     23 C         139.7693  141.2141  169.8237 C.3     1  UNL1        0.4017
     24 F         138.6167  140.2998  170.1159 F       1  UNL1       -0.1697
     25 F         140.5209  140.0704  169.2097 F       1  UNL1       -0.1697
     26 F         139.0177  142.3578  170.4377 F       1  UNL1       -0.1697
     27 C         138.0088  141.5876  161.9037 C.3     1  UNL1        0.1007
     28 C         137.7305  140.3952  162.7701 C.3     1  UNL1        0.0673
     29 C         138.6941  140.0151  163.8550 C.ar    1  UNL1        0.0607
     30 C         138.2228  139.9152  165.2756 C.ar    1  UNL1        0.0148
     31 C         139.1864  139.5350  166.3604 C.ar    1  UNL1        0.0028
     32 C         140.6213  139.2548  166.0247 C.ar    1  UNL1        0.0207
     33 C         141.0925  139.3547  164.6042 C.ar    1  UNL1        0.0984
     34 N         140.1289  139.7348  163.5193 N.ar    1  UNL1       -0.2481
@<TRIPOS>BOND
     1    11    12    2
     2    12    13   am
     3    13    15    1
     4    15    16    1
     5    16    17   ar
     6    17    18   ar
     7    18    19   ar
     8    19    22    1
     9    22    23    1
    10    23    24    1
    11    23    25    1
    12    23    26    1
    13    19    20   ar
    14    20    21   ar
    15    12     1    1
    16     1     2    1
    17     2     3   ar
    18     3     4   ar
    19     4     5   ar
    20     5     6   ar
    21     6     7   ar
    22     7     8    1
    23     8     9    2
    24     8    10   am
    25    10    27    1
    26    27    28    1
    27    28    29    1
    28    29    30   ar
    29    30    31   ar
    30    31    32   ar
    31    32    33   ar
    32    33    34   ar
    33    21    16   ar
    34    10     1    1
    35    34    29   ar
    36     7     2   ar
    37    13    14    1
@<TRIPOS>MOLECULE
*****
 34 37 0 0 0
SMALL
GASTEIGER

@<TRIPOS>ATOM
      1 C         139.9061  143.8077  160.6678 C.3     1  UNL1        0.1751
      2 C         140.4295  144.3646  159.3771 C.ar    1  UNL1        0.0089
      3 C         141.4871  145.3861  159.0803 C.ar    1  UNL1       -0.0021
      4 C         141.8011  145.7493  157.6593 C.ar    1  UNL1       -0.0003
      5 C         141.0576  145.0911  156.5351 C.ar    1  UNL1        0.0001
      6 C         140.0000  144.0696  156.8319 C.ar    1  UNL1        0.0043
      7 C         139.6860  143.7064  158.2529 C.ar    1  UNL1        0.0516
      8 C         138.7030  142.7427  158.8489 C.2     1  UNL1        0.2493
      9 O         137.7512  141.8697  158.0861 O.2     1  UNL1       -0.2699
     10 N         138.8391  142.8053  160.3413 N.am    1  UNL1       -0.2657
     11 O         139.5928  145.1886  162.8461 O.2     1  UNL1       -0.2729
     12 C         140.3686  144.1867  162.0435 C.2     1  UNL1        0.2451
     13 N         141.6070  143.5636  162.6167 N.am    1  UNL1       -0.2988
     14 H         142.1162  142.9060  162.0899 H       1  UNL1        0.1498
     15 C         142.0694  143.9426  163.9923 C.3     1  UNL1        0.1164
     16 C         141.7525  143.0568  165.1606 C.ar    1  UNL1       -0.0026
     17 C         140.4327  143.1839  165.8620 C.ar    1  UNL1       -0.0029
     18 C         140.1159  142.2981  167.0303 C.ar    1  UNL1       -0.0043
     19 C         141.1188  141.2850  167.4972 C.ar    1  UNL1       -0.0138
     20 C         142.4386  141.1579  166.7957 C.ar    1  UNL1       -0.0043
     21 C         142.7555  142.0438  165.6274 C.ar    1  UNL1       -0.0029
     22 C         140.8019  140.3992  168.6654 C.3     1  UNL1        0.1297
     23 C         139.5269  140.5949  169.4310 C.3     1  UNL1        0.4017
     24 F         138.2520  140.7907  170.1966 F       1  UNL1       -0.1697
     25 F         138.8318  139.6259  168.5212 F       1  UNL1       -0.1697
     26 F         140.2220  141.5640  170.3408 F       1  UNL1       -0.1697
     27 C         138.0472  142.0058  161.3332 C.3     1  UNL1        0.1007
     28 C         138.1897  140.5133  161.3783 C.3     1  UNL1        0.0673
     29 C         138.3590  139.8155  162.6952 C.ar    1  UNL1        0.0607
     30 C         138.0554  140.5407  163.9728 C.ar    1  UNL1        0.0148
     31 C         138.2247  139.8429  165.2897 C.ar    1  UNL1        0.0028
     32 C         138.6977  138.4199  165.3292 C.ar    1  UNL1        0.0207
     33 C         139.0012  137.6948  164.0517 C.ar    1  UNL1        0.0984
     34 N         138.8319  138.3926  162.7347 N.ar    1  UNL1       -0.2481
@<TRIPOS>BOND
     1    11    12    2
     2    12    13   am
     3    13    15    1
     4    15    16    1
     5    16    17   ar
     6    17    18   ar
     7    18    19   ar
     8    19    22    1
     9    22    23    1
    10    23    24    1
    11    23    25    1
    12    23    26    1
    13    19    20   ar
    14    20    21   ar
    15    12     1    1
    16     1     2    1
    17     2     3   ar
    18     3     4   ar
    19     4     5   ar
    20     5     6   ar
    21     6     7   ar
    22     7     8    1
    23     8     9    2
    24     8    10   am
    25    10    27    1
    26    27    28    1
    27    28    29    1
    28    29    30   ar
    29    30    31   ar
    30    31    32   ar
    31    32    33   ar
    32    33    34   ar
    33    21    16   ar
    34    10     1    1
    35    34    29   ar
    36     7     2   ar
    37    13    14    1
