@<TRIPOS>MOLECULE
*****
 42 48 0 0 0
SMALL
GASTEIGER

@<TRIPOS>ATOM
      1 C         141.6503  140.7443  164.4913 C.3     1  UNL1        0.0236
      2 C         140.5624  141.4522  165.2432 C.3     1  UNL1        0.0256
      3 C         140.6714  141.6314  166.7285 C.3     1  UNL1        0.0937
      4 N         141.8683  141.1027  167.4619 N.am    1  UNL1       -0.2793
      5 C         141.9773  141.2819  168.9472 C.2     1  UNL1        0.2296
      6 O         143.1742  140.7531  169.6805 O.2     1  UNL1       -0.2745
      7 C         142.9562  140.3948  166.7100 C.3     1  UNL1        0.0937
      8 C         142.8472  140.2156  165.2248 C.3     1  UNL1        0.0256
      9 C         142.4148  140.1481  163.3467 C.ar    1  UNL1       -0.0204
     10 C         142.5730  138.6600  163.2446 C.ar    1  UNL1       -0.0041
     11 C         143.3375  138.0637  162.1000 C.ar    1  UNL1        0.0020
     12 C         143.9437  138.9558  161.0575 C.ar    1  UNL1        0.0296
     13 C         143.7855  140.4439  161.1595 C.ar    1  UNL1        0.1398
     14 F         144.3917  141.3358  160.1170 F       1  UNL1       -0.2042
     15 C         143.0210  141.0400  162.3042 C.ar    1  UNL1        0.0254
     16 C         140.8894  141.9898  169.6990 C.3     1  UNL1        0.1008
     17 C         141.5158  143.3104  169.3618 C.3     1  UNL1        0.0139
     18 C         140.4279  144.0184  170.1136 C.3     1  UNL1        0.0017
     19 C         139.8015  142.6978  170.4508 C.3     1  UNL1        0.0139
     20 C         140.2631  140.6692  170.0361 C.2     1  UNL1        0.0579
     21 O         139.5950  139.5962  169.2284 O.co2   1  UNL1       -0.5487
     22 O         140.2304  140.1962  171.4592 O.co2   1  UNL1       -0.5487
     23 C         140.7189  141.0660  163.3605 C.3     1  UNL1        0.0215
     24 C         139.4022  140.3562  163.2482 C.3     1  UNL1        0.0723
     25 C         139.3175  140.3327  163.3782 C.3     1  UNL1        0.0893
     26 C         139.8243  138.9209  163.3577 C.3     1  UNL1        0.0386
     27 C         139.3991  137.9559  164.4244 C.3     1  UNL1        0.0594
     28 C         138.7380  137.3695  165.6365 C.3     1  UNL1        0.0174
     29 C         137.9074  138.4423  166.2760 C.3     1  UNL1        0.0174
     30 C         138.0551  139.6918  165.4592 C.3     1  UNL1        0.0594
     31 C         138.3856  140.7791  164.4654 C.3     1  UNL1        0.0386
     32 N         138.9770  139.3911  164.3148 N.3     1  UNL1       -0.2751
     33 C         140.0587  139.4665  160.6587 C.3     1  UNL1        0.0718
     34 C         140.1349  140.9437  160.9077 C.ar    1  UNL1        0.1207
     35 N         140.4850  142.2135  160.1900 N.ar    1  UNL1       -0.2309
     36 C         140.3092  143.3523  161.1503 C.ar    1  UNL1        0.0983
     37 C         140.5075  144.8315  161.0002 C.ar    1  UNL1        0.0206
     38 C         140.2471  145.7448  162.1613 C.ar    1  UNL1        0.0016
     39 C         139.7884  145.1788  163.4725 C.ar    1  UNL1        0.0016
     40 C         139.5900  143.6996  163.6226 C.ar    1  UNL1        0.0188
     41 C         139.8504  142.7864  162.4615 C.ar    1  UNL1        0.0785
     42 N         139.7427  141.2978  162.3115 N.ar    1  UNL1       -0.3167
@<TRIPOS>UNITY_ATOM_ATTR
21 1
charge -1
@<TRIPOS>BOND
     1    33    34    1
     2    34    35   ar
     3    35    36   ar
     4    36    37   ar
     5    37    38   ar
     6    38    39   ar
     7    39    40   ar
     8    40    41   ar
     9    41    42   ar
    10    42    25    1
    11    25    26    1
    12    26    27    1
    13    27    28    1
    14    28    29    1
    15    29    30    1
    16    30    31    1
    17    30    32    1
    18    32    24    1
    19    24    23    1
    20    23     1    1
    21     1     9    1
    22     9    10   ar
    23    10    11   ar
    24    11    12   ar
    25    12    13   ar
    26    13    14    1
    27    13    15   ar
    28     1     2    1
    29     2     3    1
    30     3     4    1
    31     4     5   am
    32     5     6    2
    33     5    16    1
    34    16    20    1
    35    20    21   ar
    36    20    22   ar
    37    16    17    1
    38    17    18    1
    39    18    19    1
    40     4     7    1
    41     7     8    1
    42    42    34   ar
    43    31    25    1
    44     8     1    1
    45    41    36   ar
    46    32    27    1
    47    15     9   ar
    48    19    16    1
@<TRIPOS>MOLECULE
*****
 42 48 0 0 0
SMALL
GASTEIGER

@<TRIPOS>ATOM
      1 C         140.5563  140.9735  164.6688 C.3     1  UNL1        0.0236
      2 C         141.3761  142.0483  165.3190 C.3     1  UNL1        0.0256
      3 C         141.5174  142.0841  166.8119 C.3     1  UNL1        0.0937
      4 N         140.8389  141.0451  167.6546 N.am    1  UNL1       -0.2793
      5 C         140.9802  141.0809  169.1475 C.2     1  UNL1        0.2296
      6 O         140.3017  140.0419  169.9902 O.2     1  UNL1       -0.2745
      7 C         140.0191  139.9703  167.0044 C.3     1  UNL1        0.0937
      8 C         139.8778  139.9345  165.5116 C.3     1  UNL1        0.0256
      9 C         139.8919  140.1615  163.5966 C.ar    1  UNL1       -0.0204
     10 C         138.3951  140.0977  163.5231 C.ar    1  UNL1       -0.0041
     11 C         137.7308  139.2858  162.4509 C.ar    1  UNL1        0.0020
     12 C         138.5634  138.5377  161.4523 C.ar    1  UNL1        0.0296
     13 C         140.0603  138.6016  161.5259 C.ar    1  UNL1        0.1398
     14 F         140.8928  137.8535  160.5273 F       1  UNL1       -0.2042
     15 C         140.7245  139.4135  162.5981 C.ar    1  UNL1        0.0254
     16 C         141.8000  142.1557  169.7977 C.3     1  UNL1        0.1008
     17 C         143.0546  141.4164  169.4377 C.3     1  UNL1        0.0139
     18 C         143.8745  142.4912  170.0878 C.3     1  UNL1        0.0017
     19 C         142.6199  143.2305  170.4478 C.3     1  UNL1        0.0139
     20 C         140.5454  142.8949  170.1576 C.2     1  UNL1        0.0579
     21 O         139.5910  142.8270  171.3127 O.co2   1  UNL1       -0.5487
     22 O         140.0180  143.9645  169.2479 O.co2   1  UNL1       -0.5487
     23 C         141.0040  141.7305  163.4538 C.3     1  UNL1        0.0215
     24 C         140.5842  143.1578  163.2624 C.3     1  UNL1        0.0723
     25 C         140.4300  143.1617  163.2914 C.3     1  UNL1        0.0893
     26 C         140.7393  144.1529  164.3741 C.3     1  UNL1        0.0386
     27 C         139.6301  144.7263  165.2052 C.3     1  UNL1        0.0594
     28 C         138.2669  145.0204  165.7576 C.3     1  UNL1        0.0174
     29 C         137.2693  144.2071  164.9873 C.3     1  UNL1        0.0174
     30 C         138.0159  143.4104  163.9589 C.3     1  UNL1        0.0594
     31 C         139.0115  142.7442  163.0399 C.3     1  UNL1        0.0386
     32 N         139.4751  143.7312  164.0935 N.3     1  UNL1       -0.2751
     33 C         140.0240  142.2451  160.5182 C.3     1  UNL1        0.0718
     34 C         141.4201  142.0999  161.0470 C.ar    1  UNL1        0.1207
     35 N         142.7696  141.6123  160.6099 N.ar    1  UNL1       -0.2309
     36 C         143.7228  141.7994  161.7529 C.ar    1  UNL1        0.0983
     37 C         145.1848  141.4985  161.9001 C.ar    1  UNL1        0.0206
     38 C         145.8865  141.8007  163.1910 C.ar    1  UNL1        0.0016
     39 C         145.1260  142.4039  164.3346 C.ar    1  UNL1        0.0016
     40 C         143.6640  142.7049  164.1874 C.ar    1  UNL1        0.0188
     41 C         142.9623  142.4026  162.8965 C.ar    1  UNL1        0.0785
     42 N         141.5392  142.5883  162.4603 N.ar    1  UNL1       -0.3167
@<TRIPOS>UNITY_ATOM_ATTR
21 1
charge -1
@<TRIPOS>BOND
     1    33    34    1
     2    34    35   ar
     3    35    36   ar
     4    36    37   ar
     5    37    38   ar
     6    38    39   ar
     7    39    40   ar
     8    40    41   ar
     9    41    42   ar
    10    42    25    1
    11    25    26    1
    12    26    27    1
    13    27    28    1
    14    28    29    1
    15    29    30    1
    16    30    31    1
    17    30    32    1
    18    32    24    1
    19    24    23    1
    20    23     1    1
    21     1     9    1
    22     9    10   ar
    23    10    11   ar
    24    11    12   ar
    25    12    13   ar
    26    13    14    1
    27    13    15   ar
    28     1     2    1
    29     2     3    1
    30     3     4    1
    31     4     5   am
    32     5     6    2
    33     5    16    1
    34    16    20    1
    35    20    21   ar
    36    20    22   ar
    37    16    17    1
    38    17    18    1
    39    18    19    1
    40     4     7    1
    41     7     8    1
    42    42    34   ar
    43    31    25    1
    44     8     1    1
    45    41    36   ar
    46    32    27    1
    47    15     9   ar
    48    19    16    1
@<TRIPOS>MOLECULE
*****
 42 48 0 0 0
SMALL
GASTEIGER

@<TRIPOS>ATOM
      1 C         141.4070  142.5492  165.0133 C.3     1  UNL1        0.0236
      2 C         140.0702  142.4209  165.6816 C.3     1  UNL1        0.0256
      3 C         139.9884  142.0159  167.1236 C.3     1  UNL1        0.0937
      4 N         141.2434  141.7391  167.8972 N.am    1  UNL1       -0.2793
      5 C         141.1616  141.3341  169.3392 C.2     1  UNL1        0.2296
      6 O         142.4165  141.0573  170.1129 O.2     1  UNL1       -0.2745
      7 C         142.5801  141.8673  167.2289 C.3     1  UNL1        0.0937
      8 C         142.6619  142.2723  165.7870 C.3     1  UNL1        0.0256
      9 C         142.4315  142.8043  163.9477 C.ar    1  UNL1       -0.0204
     10 C         142.7297  144.2092  163.5150 C.ar    1  UNL1       -0.0041
     11 C         143.7542  144.4643  162.4495 C.ar    1  UNL1        0.0020
     12 C         144.4805  143.3144  161.8168 C.ar    1  UNL1        0.0296
     13 C         144.1823  141.9095  162.2495 C.ar    1  UNL1        0.1398
     14 F         144.9086  140.7598  161.6168 F       1  UNL1       -0.2042
     15 C         143.1578  141.6545  163.3151 C.ar    1  UNL1        0.0254
     16 C         139.8248  141.2058  170.0075 C.3     1  UNL1        0.1008
     17 C         139.5787  139.9237  169.2689 C.3     1  UNL1        0.0139
     18 C         138.2419  139.7954  169.9371 C.3     1  UNL1        0.0017
     19 C         138.4880  141.0775  170.6757 C.3     1  UNL1        0.0139
     20 C         140.0710  142.4880  170.7460 C.2     1  UNL1        0.0579
     21 O         140.1145  143.9317  170.3416 O.co2   1  UNL1       -0.5487
     22 O         140.3478  142.4631  172.2201 O.co2   1  UNL1       -0.5487
     23 C         140.5079  142.9145  163.8697 C.3     1  UNL1        0.0215
     24 C         139.5520  141.9010  163.3136 C.3     1  UNL1        0.0723
     25 C         139.4649  141.8074  163.4046 C.3     1  UNL1        0.0893
     26 C         140.5353  140.7716  163.2265 C.3     1  UNL1        0.0386
     27 C         140.3979  139.4304  163.8840 C.3     1  UNL1        0.0594
     28 C         139.8609  138.2850  164.6900 C.3     1  UNL1        0.0174
     29 C         138.5456  138.7066  165.2752 C.3     1  UNL1        0.0174
     30 C         138.2698  140.1125  164.8308 C.3     1  UNL1        0.0594
     31 C         138.2573  141.5018  164.2401 C.3     1  UNL1        0.0386
     32 N         139.4146  140.5598  163.9709 N.3     1  UNL1       -0.2751
     33 C         138.2910  144.2607  164.5441 C.3     1  UNL1        0.0718
     34 C         139.0389  144.4421  163.2566 C.ar    1  UNL1        0.1207
     35 N         139.4157  145.5247  162.2891 N.ar    1  UNL1       -0.2309
     36 C         140.2119  144.9003  161.1818 C.ar    1  UNL1        0.0983
     37 C         140.8467  145.4792  159.9523 C.ar    1  UNL1        0.0206
     38 C         141.5969  144.5897  159.0058 C.ar    1  UNL1        0.0016
     39 C         141.7123  143.1211  159.2889 C.ar    1  UNL1        0.0016
     40 C         141.0774  142.5422  160.5184 C.ar    1  UNL1        0.0188
     41 C         140.3272  143.4318  161.4649 C.ar    1  UNL1        0.0785
     42 N         139.6023  143.1486  162.7472 N.ar    1  UNL1       -0.3167
@<TRIPOS>UNITY_ATOM_ATTR
21 1
charge -1
@<TRIPOS>BOND
     1    33    34    1
     2    34    35   ar
     3    35    36   ar
     4    36    37   ar
     5    37    38   ar
     6    38    39   ar
     7    39    40   ar
     8    40    41   ar
     9    41    42   ar
    10    42    25    1
    11    25    26    1
    12    26    27    1
    13    27    28    1
    14    28    29    1
    15    29    30    1
    16    30    31    1
    17    30    32    1
    18    32    24    1
    19    24    23    1
    20    23     1    1
    21     1     9    1
    22     9    10   ar
    23    10    11   ar
    24    11    12   ar
    25    12    13   ar
    26    13    14    1
    27    13    15   ar
    28     1     2    1
    29     2     3    1
    30     3     4    1
    31     4     5   am
    32     5     6    2
    33     5    16    1
    34    16    20    1
    35    20    21   ar
    36    20    22   ar
    37    16    17    1
    38    17    18    1
    39    18    19    1
    40     4     7    1
    41     7     8    1
    42    42    34   ar
    43    31    25    1
    44     8     1    1
    45    41    36   ar
    46    32    27    1
    47    15     9   ar
    48    19    16    1
@<TRIPOS>MOLECULE
*****
 42 48 0 0 0
SMALL
GASTEIGER

@<TRIPOS>ATOM
      1 C         140.2261  140.3553  164.9789 C.3     1  UNL1        0.0236
      2 C         141.4299  140.7281  165.7925 C.3     1  UNL1        0.0256
      3 C         141.3737  140.6593  167.2899 C.3     1  UNL1        0.0937
      4 N         140.1137  140.2179  167.9737 N.am    1  UNL1       -0.2793
      5 C         140.0575  140.1491  169.4711 C.2     1  UNL1        0.2296
      6 O         138.7975  139.7077  170.1548 O.2     1  UNL1       -0.2745
      7 C         138.9099  139.8451  167.1600 C.3     1  UNL1        0.0937
      8 C         138.9661  139.9139  165.6627 C.3     1  UNL1        0.0256
      9 C         139.3547  140.1058  163.7836 C.ar    1  UNL1       -0.0204
     10 C         138.2206  141.0376  163.4747 C.ar    1  UNL1       -0.0041
     11 C         137.3492  140.7881  162.2794 C.ar    1  UNL1        0.0020
     12 C         137.6121  139.6067  161.3932 C.ar    1  UNL1        0.0296
     13 C         138.7463  138.6749  161.7023 C.ar    1  UNL1        0.1398
     14 F         139.0091  137.4937  160.8161 F       1  UNL1       -0.2042
     15 C         139.6176  138.9245  162.8975 C.ar    1  UNL1        0.0254
     16 C         141.2613  140.5219  170.2846 C.3     1  UNL1        0.1008
     17 C         141.9159  139.2253  169.9099 C.3     1  UNL1        0.0139
     18 C         143.1197  139.5979  170.7234 C.3     1  UNL1        0.0017
     19 C         142.4652  140.8945  171.0981 C.3     1  UNL1        0.0139
     20 C         140.6066  141.8184  170.6593 C.2     1  UNL1        0.0579
     21 O         140.0195  142.9541  169.8750 O.co2   1  UNL1       -0.5487
     22 O         140.4387  142.1836  172.1044 O.co2   1  UNL1       -0.5487
     23 C         141.1834  140.7101  163.8801 C.3     1  UNL1        0.0215
     24 C         141.5390  142.1457  163.6295 C.3     1  UNL1        0.0723
     25 C         141.4313  142.2333  163.5562 C.3     1  UNL1        0.0893
     26 C         141.1431  142.8548  164.8907 C.3     1  UNL1        0.0386
     27 C         140.0934  143.9196  165.0111 C.3     1  UNL1        0.0594
     28 C         139.0106  144.9003  164.6710 C.3     1  UNL1        0.0174
     29 C         138.7374  144.7974  163.1997 C.3     1  UNL1        0.0174
     30 C         139.6512  143.7530  162.6304 C.3     1  UNL1        0.0594
     31 C         140.6698  142.6765  162.3423 C.3     1  UNL1        0.0386
     32 N         140.4893  143.2104  163.7500 N.3     1  UNL1       -0.2751
     33 C         143.6456  141.9629  165.4847 C.3     1  UNL1        0.0718
     34 C         143.6370  140.9606  164.3687 C.ar    1  UNL1        0.1207
     35 N         144.4294  139.7884  163.8708 N.ar    1  UNL1       -0.2309
     36 C         143.7632  139.2719  162.6300 C.ar    1  UNL1        0.0983
     37 C         144.0974  138.1351  161.7104 C.ar    1  UNL1        0.0206
     38 C         143.2275  137.8512  160.5219 C.ar    1  UNL1        0.0016
     39 C         142.0233  138.7042  160.2530 C.ar    1  UNL1        0.0016
     40 C         141.6890  139.8411  161.1727 C.ar    1  UNL1        0.0188
     41 C         142.5590  140.1249  162.3612 C.ar    1  UNL1        0.0785
     42 N         142.4810  141.1686  163.4358 N.ar    1  UNL1       -0.3167
@<TRIPOS>UNITY_ATOM_ATTR
21 1
charge -1
@<TRIPOS>BOND
     1    33    34    1
     2    34    35   ar
     3    35    36   ar
     4    36    37   ar
     5    37    38   ar
     6    38    39   ar
     7    39    40   ar
     8    40    41   ar
     9    41    42   ar
    10    42    25    1
    11    25    26    1
    12    26    27    1
    13    27    28    1
    14    28    29    1
    15    29    30    1
    16    30    31    1
    17    30    32    1
    18    32    24    1
    19    24    23    1
    20    23     1    1
    21     1     9    1
    22     9    10   ar
    23    10    11   ar
    24    11    12   ar
    25    12    13   ar
    26    13    14    1
    27    13    15   ar
    28     1     2    1
    29     2     3    1
    30     3     4    1
    31     4     5   am
    32     5     6    2
    33     5    16    1
    34    16    20    1
    35    20    21   ar
    36    20    22   ar
    37    16    17    1
    38    17    18    1
    39    18    19    1
    40     4     7    1
    41     7     8    1
    42    42    34   ar
    43    31    25    1
    44     8     1    1
    45    41    36   ar
    46    32    27    1
    47    15     9   ar
    48    19    16    1
@<TRIPOS>MOLECULE
*****
 42 48 0 0 0
SMALL
GASTEIGER

@<TRIPOS>ATOM
      1 C         139.9369  140.7646  164.7656 C.3     1  UNL1        0.0236
      2 C         141.1119  141.2398  165.5678 C.3     1  UNL1        0.0256
      3 C         141.0899  141.1356  167.0641 C.3     1  UNL1        0.0937
      4 N         139.8929  140.5563  167.7581 N.am    1  UNL1       -0.2793
      5 C         139.8710  140.4522  169.2543 C.2     1  UNL1        0.2296
      6 O         138.6740  139.8729  169.9483 O.2     1  UNL1       -0.2745
      7 C         138.7179  140.0812  166.9558 C.3     1  UNL1        0.0937
      8 C         138.7398  140.1853  165.4597 C.3     1  UNL1        0.0256
      9 C         139.0733  140.4531  163.5793 C.ar    1  UNL1       -0.0204
     10 C         138.3986  141.5639  162.8304 C.ar    1  UNL1       -0.0041
     11 C         137.5350  141.2523  161.6440 C.ar    1  UNL1        0.0020
     12 C         137.3463  139.8299  161.2067 C.ar    1  UNL1        0.0296
     13 C         138.0211  138.7191  161.9556 C.ar    1  UNL1        0.1398
     14 F         137.8324  137.2969  161.5183 F       1  UNL1       -0.2042
     15 C         138.8846  139.0308  163.1419 C.ar    1  UNL1        0.0254
     16 C         141.0460  140.9273  170.0565 C.3     1  UNL1        0.1008
     17 C         141.7455  139.6248  169.8031 C.3     1  UNL1        0.0139
     18 C         142.9206  140.0999  170.6052 C.3     1  UNL1        0.0017
     19 C         142.2211  141.4024  170.8586 C.3     1  UNL1        0.0139
     20 C         140.3464  142.2298  170.3098 C.2     1  UNL1        0.0579
     21 O         139.9438  143.3829  169.4391 O.co2   1  UNL1       -0.5487
     22 O         139.8963  142.5820  171.6966 O.co2   1  UNL1       -0.5487
     23 C         140.8339  141.2357  163.6596 C.3     1  UNL1        0.0215
     24 C         142.1142  140.5091  163.3714 C.3     1  UNL1        0.0723
     25 C         142.2221  140.4841  163.4826 C.3     1  UNL1        0.0893
     26 C         141.6213  139.1195  163.6472 C.3     1  UNL1        0.0386
     27 C         142.1876  138.1677  164.6588 C.3     1  UNL1        0.0594
     28 C         143.0417  137.5795  165.7426 C.3     1  UNL1        0.0174
     29 C         144.0625  138.6056  166.1365 C.3     1  UNL1        0.0174
     30 C         143.8393  139.8279  165.2962 C.3     1  UNL1        0.0594
     31 C         143.3893  140.8967  164.3295 C.3     1  UNL1        0.0386
     32 N         142.6805  139.5573  164.3829 N.3     1  UNL1       -0.2751
     33 C         141.4349  139.6343  160.7708 C.3     1  UNL1        0.0718
     34 C         141.2310  141.0889  161.0749 C.ar    1  UNL1        0.1207
     35 N         140.7274  142.3405  160.4191 N.ar    1  UNL1       -0.2309
     36 C         140.8410  143.4609  161.4099 C.ar    1  UNL1        0.0983
     37 C         140.4960  144.9180  161.3211 C.ar    1  UNL1        0.0206
     38 C         140.7248  145.8161  162.5005 C.ar    1  UNL1        0.0016
     39 C         141.2986  145.2570  163.7687 C.ar    1  UNL1        0.0016
     40 C         141.6435  143.8000  163.8575 C.ar    1  UNL1        0.0188
     41 C         141.4147  142.9019  162.6781 C.ar    1  UNL1        0.0785
     42 N         141.6558  141.4360  162.4710 N.ar    1  UNL1       -0.3167
@<TRIPOS>UNITY_ATOM_ATTR
21 1
charge -1
@<TRIPOS>BOND
     1    33    34    1
     2    34    35   ar
     3    35    36   ar
     4    36    37   ar
     5    37    38   ar
     6    38    39   ar
     7    39    40   ar
     8    40    41   ar
     9    41    42   ar
    10    42    25    1
    11    25    26    1
    12    26    27    1
    13    27    28    1
    14    28    29    1
    15    29    30    1
    16    30    31    1
    17    30    32    1
    18    32    24    1
    19    24    23    1
    20    23     1    1
    21     1     9    1
    22     9    10   ar
    23    10    11   ar
    24    11    12   ar
    25    12    13   ar
    26    13    14    1
    27    13    15   ar
    28     1     2    1
    29     2     3    1
    30     3     4    1
    31     4     5   am
    32     5     6    2
    33     5    16    1
    34    16    20    1
    35    20    21   ar
    36    20    22   ar
    37    16    17    1
    38    17    18    1
    39    18    19    1
    40     4     7    1
    41     7     8    1
    42    42    34   ar
    43    31    25    1
    44     8     1    1
    45    41    36   ar
    46    32    27    1
    47    15     9   ar
    48    19    16    1
@<TRIPOS>MOLECULE
*****
 42 48 0 0 0
SMALL
GASTEIGER

@<TRIPOS>ATOM
      1 C         141.7034  141.1984  164.0460 C.3     1  UNL1        0.0236
      2 C         142.0069  142.4127  164.8726 C.3     1  UNL1        0.0256
      3 C         141.8418  142.3660  166.3628 C.3     1  UNL1        0.0937
      4 N         141.3732  141.1051  167.0263 N.am    1  UNL1       -0.2793
      5 C         141.2081  141.0584  168.5165 C.2     1  UNL1        0.2296
      6 O         140.7395  139.7974  169.1800 O.2     1  UNL1       -0.2745
      7 C         141.0697  139.8907  166.1997 C.3     1  UNL1        0.0937
      8 C         141.2348  139.9373  164.7096 C.3     1  UNL1        0.0256
      9 C         141.5434  140.3154  162.8439 C.ar    1  UNL1       -0.0204
     10 C         140.1724  139.9227  162.3790 C.ar    1  UNL1       -0.0041
     11 C         140.0124  139.0397  161.1770 C.ar    1  UNL1        0.0020
     12 C         141.2234  138.5495  160.4399 C.ar    1  UNL1        0.0296
     13 C         142.5944  138.9423  160.9049 C.ar    1  UNL1        0.1398
     14 F         143.8053  138.4521  160.1678 F       1  UNL1       -0.2042
     15 C         142.7543  139.8253  162.1069 C.ar    1  UNL1        0.0254
     16 C         141.5116  142.2728  169.3430 C.3     1  UNL1        0.1008
     17 C         140.1112  142.7668  169.1311 C.3     1  UNL1        0.0139
     18 C         140.4146  143.9813  169.9576 C.3     1  UNL1        0.0017
     19 C         141.8150  143.4872  170.1695 C.3     1  UNL1        0.0139
     20 C         142.9119  141.7786  169.5549 C.2     1  UNL1        0.0579
     21 O         143.4981  140.5019  170.0804 O.co2   1  UNL1       -0.5487
     22 O         144.0776  142.6555  169.2051 O.co2   1  UNL1       -0.5487
     23 C         142.1164  142.1527  162.9650 C.3     1  UNL1        0.0215
     24 C         141.2677  143.3507  162.6576 C.3     1  UNL1        0.0723
     25 C         141.2067  143.4403  162.7713 C.3     1  UNL1        0.0893
     26 C         139.9422  142.6504  162.6058 C.3     1  UNL1        0.0386
     27 C         138.7470  142.9611  163.4571 C.3     1  UNL1        0.0594
     28 C         137.8481  143.5939  164.4777 C.3     1  UNL1        0.0174
     29 C         138.6180  144.6854  165.1603 C.3     1  UNL1        0.0174
     30 C         139.9928  144.7271  164.5616 C.3     1  UNL1        0.0594
     31 C         141.2758  144.5408  163.7881 C.3     1  UNL1        0.0386
     32 N         140.0725  143.6615  163.5089 N.3     1  UNL1       -0.2751
     33 C         143.9703  143.9253  163.6785 C.3     1  UNL1        0.0718
     34 C         143.8365  143.3442  162.3022 C.ar    1  UNL1        0.1207
     35 N         144.6936  142.8968  161.1554 N.ar    1  UNL1       -0.2309
     36 C         143.7889  142.4057  160.0644 C.ar    1  UNL1        0.0983
     37 C         144.0718  141.8462  158.7017 C.ar    1  UNL1        0.0206
     38 C         142.9383  141.4304  157.8116 C.ar    1  UNL1        0.0016
     39 C         141.5219  141.5742  158.2842 C.ar    1  UNL1        0.0016
     40 C         141.2391  142.1337  159.6468 C.ar    1  UNL1        0.0188
     41 C         142.3726  142.5495  160.5369 C.ar    1  UNL1        0.0785
     42 N         142.4020  143.1295  161.9199 N.ar    1  UNL1       -0.3167
@<TRIPOS>UNITY_ATOM_ATTR
21 1
charge -1
@<TRIPOS>BOND
     1    33    34    1
     2    34    35   ar
     3    35    36   ar
     4    36    37   ar
     5    37    38   ar
     6    38    39   ar
     7    39    40   ar
     8    40    41   ar
     9    41    42   ar
    10    42    25    1
    11    25    26    1
    12    26    27    1
    13    27    28    1
    14    28    29    1
    15    29    30    1
    16    30    31    1
    17    30    32    1
    18    32    24    1
    19    24    23    1
    20    23     1    1
    21     1     9    1
    22     9    10   ar
    23    10    11   ar
    24    11    12   ar
    25    12    13   ar
    26    13    14    1
    27    13    15   ar
    28     1     2    1
    29     2     3    1
    30     3     4    1
    31     4     5   am
    32     5     6    2
    33     5    16    1
    34    16    20    1
    35    20    21   ar
    36    20    22   ar
    37    16    17    1
    38    17    18    1
    39    18    19    1
    40     4     7    1
    41     7     8    1
    42    42    34   ar
    43    31    25    1
    44     8     1    1
    45    41    36   ar
    46    32    27    1
    47    15     9   ar
    48    19    16    1
@<TRIPOS>MOLECULE
*****
 42 48 0 0 0
SMALL
GASTEIGER

@<TRIPOS>ATOM
      1 C         141.6663  140.8100  164.5390 C.3     1  UNL1        0.0236
      2 C         140.5634  141.5080  165.2781 C.3     1  UNL1        0.0256
      3 C         140.6504  141.6824  166.7654 C.3     1  UNL1        0.0937
      4 N         141.8403  141.1588  167.5136 N.am    1  UNL1       -0.2793
      5 C         141.9273  141.3332  169.0009 C.2     1  UNL1        0.2296
      6 O         143.1173  140.8095  169.7491 O.2     1  UNL1       -0.2745
      7 C         142.9433  140.4607  166.7745 C.3     1  UNL1        0.0937
      8 C         142.8563  140.2863  165.2873 C.3     1  UNL1        0.0256
      9 C         142.4507  140.2230  163.4031 C.ar    1  UNL1       -0.0204
     10 C         142.5887  138.7347  163.2771 C.ar    1  UNL1       -0.0041
     11 C         143.3731  138.1477  162.1412 C.ar    1  UNL1        0.0020
     12 C         144.0193  139.0491  161.1313 C.ar    1  UNL1        0.0296
     13 C         143.8812  140.5374  161.2573 C.ar    1  UNL1        0.1398
     14 F         144.5275  141.4387  160.2474 F       1  UNL1       -0.2042
     15 C         143.0969  141.1243  162.3933 C.ar    1  UNL1        0.0254
     16 C         140.8243  142.0312  169.7400 C.3     1  UNL1        0.1008
     17 C         141.4330  143.3580  169.3950 C.3     1  UNL1        0.0139
     18 C         140.3301  144.0562  170.1340 C.3     1  UNL1        0.0017
     19 C         139.7214  142.7293  170.4790 C.3     1  UNL1        0.0139
     20 C         140.2157  140.7043  170.0849 C.2     1  UNL1        0.0579
     21 O         139.5361  139.6308  169.2877 O.co2   1  UNL1       -0.5487
     22 O         140.2207  140.2237  171.5058 O.co2   1  UNL1       -0.5487
     23 C         140.7488  141.1297  163.3964 C.3     1  UNL1        0.0215
     24 C         139.4153  140.4506  163.2924 C.3     1  UNL1        0.0723
     25 C         139.3293  140.4282  163.4218 C.3     1  UNL1        0.0893
     26 C         139.8302  139.0142  163.4140 C.3     1  UNL1        0.0386
     27 C         139.3908  138.0569  164.4819 C.3     1  UNL1        0.0594
     28 C         138.7158  137.4802  165.6909 C.3     1  UNL1        0.0174
     29 C         137.8837  138.5601  166.3166 C.3     1  UNL1        0.0174
     30 C         138.0445  139.8043  165.4943 C.3     1  UNL1        0.0594
     31 C         138.3891  140.8847  164.4976 C.3     1  UNL1        0.0386
     32 N         138.9760  139.4933  164.3603 N.3     1  UNL1       -0.2751
     33 C         139.2681  143.3533  163.7900 C.3     1  UNL1        0.0718
     34 C         139.7702  142.8819  162.4575 C.ar    1  UNL1        0.1207
     35 N         140.2862  143.4356  161.1624 N.ar    1  UNL1       -0.2309
     36 C         140.6037  142.2814  160.2585 C.ar    1  UNL1        0.0983
     37 C         141.1427  142.2205  158.8600 C.ar    1  UNL1        0.0206
     38 C         141.3618  140.8925  158.1979 C.ar    1  UNL1        0.0016
     39 C         141.0420  139.6255  158.9343 C.ar    1  UNL1        0.0016
     40 C         140.5030  139.6864  160.3328 C.ar    1  UNL1        0.0188
     41 C         140.2839  141.0143  160.9949 C.ar    1  UNL1        0.0785
     42 N         139.7688  141.3855  162.3539 N.ar    1  UNL1       -0.3167
@<TRIPOS>UNITY_ATOM_ATTR
21 1
charge -1
@<TRIPOS>BOND
     1    33    34    1
     2    34    35   ar
     3    35    36   ar
     4    36    37   ar
     5    37    38   ar
     6    38    39   ar
     7    39    40   ar
     8    40    41   ar
     9    41    42   ar
    10    42    25    1
    11    25    26    1
    12    26    27    1
    13    27    28    1
    14    28    29    1
    15    29    30    1
    16    30    31    1
    17    30    32    1
    18    32    24    1
    19    24    23    1
    20    23     1    1
    21     1     9    1
    22     9    10   ar
    23    10    11   ar
    24    11    12   ar
    25    12    13   ar
    26    13    14    1
    27    13    15   ar
    28     1     2    1
    29     2     3    1
    30     3     4    1
    31     4     5   am
    32     5     6    2
    33     5    16    1
    34    16    20    1
    35    20    21   ar
    36    20    22   ar
    37    16    17    1
    38    17    18    1
    39    18    19    1
    40     4     7    1
    41     7     8    1
    42    42    34   ar
    43    31    25    1
    44     8     1    1
    45    41    36   ar
    46    32    27    1
    47    15     9   ar
    48    19    16    1
@<TRIPOS>MOLECULE
*****
 42 48 0 0 0
SMALL
GASTEIGER

@<TRIPOS>ATOM
      1 C         141.1079  140.6364  164.3481 C.3     1  UNL1        0.0236
      2 C         141.8036  141.7606  165.0567 C.3     1  UNL1        0.0256
      3 C         141.7847  141.8286  166.5551 C.3     1  UNL1        0.0937
      4 N         141.0701  140.7724  167.3449 N.am    1  UNL1       -0.2793
      5 C         141.0512  140.8404  168.8432 C.2     1  UNL1        0.2296
      6 O         140.3366  139.7842  169.6330 O.2     1  UNL1       -0.2745
      7 C         140.3744  139.6482  166.6363 C.3     1  UNL1        0.0937
      8 C         140.3932  139.5802  165.1380 C.3     1  UNL1        0.0256
      9 C         140.5989  139.7750  163.2305 C.ar    1  UNL1       -0.0204
     10 C         141.5551  138.9387  162.4330 C.ar    1  UNL1       -0.0041
     11 C         141.0461  138.0773  161.3153 C.ar    1  UNL1        0.0020
     12 C         139.5809  138.0524  160.9953 C.ar    1  UNL1        0.0296
     13 C         138.6246  138.8888  161.7929 C.ar    1  UNL1        0.1398
     14 F         137.1595  138.8638  161.4728 F       1  UNL1       -0.2042
     15 C         139.1337  139.7501  162.9105 C.ar    1  UNL1        0.0254
     16 C         141.7470  141.9647  169.5517 C.3     1  UNL1        0.1008
     17 C         143.0668  141.2870  169.3307 C.3     1  UNL1        0.0139
     18 C         143.7627  142.4112  170.0392 C.3     1  UNL1        0.0017
     19 C         142.4428  143.0889  170.2602 C.3     1  UNL1        0.0139
     20 C         140.4271  142.6423  169.7726 C.2     1  UNL1        0.0579
     21 O         139.3008  142.4391  170.7421 O.co2   1  UNL1       -0.5487
     22 O         140.0194  143.7925  168.9004 O.co2   1  UNL1       -0.5487
     23 C         141.6457  141.3934  163.1703 C.3     1  UNL1        0.0215
     24 C         141.0848  142.7412  162.8253 C.3     1  UNL1        0.0723
     25 C         141.0493  142.8457  162.9369 C.3     1  UNL1        0.0893
     26 C         139.6301  142.3757  162.8133 C.3     1  UNL1        0.0386
     27 C         138.5609  142.9851  163.6709 C.3     1  UNL1        0.0594
     28 C         137.8595  143.8410  164.6836 C.3     1  UNL1        0.0174
     29 C         138.8809  144.7355  165.3214 C.3     1  UNL1        0.0174
     30 C         140.2134  144.4324  164.7029 C.3     1  UNL1        0.0594
     31 C         141.3990  143.9250  163.9180 C.3     1  UNL1        0.0386
     32 N         140.0156  143.3505  163.6828 N.3     1  UNL1       -0.2751
     33 C         143.8865  142.7899  163.7386 C.3     1  UNL1        0.0718
     34 C         143.5800  142.1656  162.4095 C.ar    1  UNL1        0.1207
     35 N         144.2786  141.4763  161.2752 N.ar    1  UNL1       -0.2309
     36 C         143.2490  141.1210  160.2439 C.ar    1  UNL1        0.0983
     37 C         143.3546  140.4304  158.9166 C.ar    1  UNL1        0.0206
     38 C         142.1251  140.2095  158.0862 C.ar    1  UNL1        0.0016
     39 C         140.7900  140.6793  158.5832 C.ar    1  UNL1        0.0016
     40 C         140.6844  141.3699  159.9105 C.ar    1  UNL1        0.0188
     41 C         141.9139  141.5907  160.7409 C.ar    1  UNL1        0.0785
     42 N         142.1185  142.2363  162.0793 N.ar    1  UNL1       -0.3167
@<TRIPOS>UNITY_ATOM_ATTR
21 1
charge -1
@<TRIPOS>BOND
     1    33    34    1
     2    34    35   ar
     3    35    36   ar
     4    36    37   ar
     5    37    38   ar
     6    38    39   ar
     7    39    40   ar
     8    40    41   ar
     9    41    42   ar
    10    42    25    1
    11    25    26    1
    12    26    27    1
    13    27    28    1
    14    28    29    1
    15    29    30    1
    16    30    31    1
    17    30    32    1
    18    32    24    1
    19    24    23    1
    20    23     1    1
    21     1     9    1
    22     9    10   ar
    23    10    11   ar
    24    11    12   ar
    25    12    13   ar
    26    13    14    1
    27    13    15   ar
    28     1     2    1
    29     2     3    1
    30     3     4    1
    31     4     5   am
    32     5     6    2
    33     5    16    1
    34    16    20    1
    35    20    21   ar
    36    20    22   ar
    37    16    17    1
    38    17    18    1
    39    18    19    1
    40     4     7    1
    41     7     8    1
    42    42    34   ar
    43    31    25    1
    44     8     1    1
    45    41    36   ar
    46    32    27    1
    47    15     9   ar
    48    19    16    1
@<TRIPOS>MOLECULE
*****
 42 48 0 0 0
SMALL
GASTEIGER

@<TRIPOS>ATOM
      1 C         141.8586  141.2072  164.4017 C.3     1  UNL1        0.0236
      2 C         140.7584  140.9694  165.3931 C.3     1  UNL1        0.0256
      3 C         140.9655  141.3095  166.8393 C.3     1  UNL1        0.0937
      4 N         142.2729  141.8875  167.2941 N.am    1  UNL1       -0.2793
      5 C         142.4800  142.2276  168.7403 C.2     1  UNL1        0.2296
      6 O         143.7873  142.8056  169.1950 O.2     1  UNL1       -0.2745
      7 C         143.3731  142.1253  166.3026 C.3     1  UNL1        0.0937
      8 C         143.1660  141.7851  164.8565 C.3     1  UNL1        0.0256
      9 C         142.5936  141.2493  163.0947 C.ar    1  UNL1       -0.0204
     10 C         142.8444  142.5640  162.4174 C.ar    1  UNL1       -0.0041
     11 C         143.5793  142.6062  161.1104 C.ar    1  UNL1        0.0020
     12 C         144.0634  141.3336  160.4808 C.ar    1  UNL1        0.0296
     13 C         143.8125  140.0189  161.1582 C.ar    1  UNL1        0.1398
     14 F         144.2965  138.7465  160.5285 F       1  UNL1       -0.2042
     15 C         143.0776  139.9769  162.4651 C.ar    1  UNL1        0.0254
     16 C         141.3797  141.9898  169.7316 C.3     1  UNL1        0.1008
     17 C         140.9180  143.4065  169.5590 C.3     1  UNL1        0.0139
     18 C         139.8177  143.1688  170.5503 C.3     1  UNL1        0.0017
     19 C         140.2793  141.7521  170.7230 C.3     1  UNL1        0.0139
     20 C         141.8414  140.5731  169.9042 C.2     1  UNL1        0.0579
     21 O         143.1873  139.9248  170.0384 O.co2   1  UNL1       -0.5487
     22 O         140.8378  139.4604  169.9733 O.co2   1  UNL1       -0.5487
     23 C         140.8066  140.6439  163.4931 C.3     1  UNL1        0.0215
     24 C         139.5890  141.4551  163.1618 C.3     1  UNL1        0.0723
     25 C         139.6117  141.5743  163.0622 C.3     1  UNL1        0.0893
     26 C         139.4764  142.4848  164.2467 C.3     1  UNL1        0.0386
     27 C         139.5903  143.9698  164.0681 C.3     1  UNL1        0.0594
     28 C         139.7672  145.3221  163.4438 C.3     1  UNL1        0.0174
     29 C         139.9892  145.1282  161.9730 C.3     1  UNL1        0.0174
     30 C         139.9495  143.6560  161.6883 C.3     1  UNL1        0.0594
     31 C         139.8609  142.1489  161.6993 C.3     1  UNL1        0.0386
     32 N         139.7029  142.9400  162.9832 N.3     1  UNL1       -0.2751
     33 C         140.5165  139.6558  161.0138 C.3     1  UNL1        0.0718
     34 C         139.9315  139.0467  162.2534 C.ar    1  UNL1        0.1207
     35 N         139.6319  137.6993  162.8406 N.ar    1  UNL1       -0.2309
     36 C         139.0131  137.9092  164.1908 C.ar    1  UNL1        0.0983
     37 C         138.5144  136.9461  165.2270 C.ar    1  UNL1        0.0206
     38 C         137.9329  137.4601  166.5105 C.ar    1  UNL1        0.0016
     39 C         137.8500  138.9373  166.7579 C.ar    1  UNL1        0.0016
     40 C         138.3487  139.9004  165.7217 C.ar    1  UNL1        0.0188
     41 C         138.9302  139.3863  164.4382 C.ar    1  UNL1        0.0785
     42 N         139.4978  140.0894  163.2408 N.ar    1  UNL1       -0.3167
@<TRIPOS>UNITY_ATOM_ATTR
21 1
charge -1
@<TRIPOS>BOND
     1    33    34    1
     2    34    35   ar
     3    35    36   ar
     4    36    37   ar
     5    37    38   ar
     6    38    39   ar
     7    39    40   ar
     8    40    41   ar
     9    41    42   ar
    10    42    25    1
    11    25    26    1
    12    26    27    1
    13    27    28    1
    14    28    29    1
    15    29    30    1
    16    30    31    1
    17    30    32    1
    18    32    24    1
    19    24    23    1
    20    23     1    1
    21     1     9    1
    22     9    10   ar
    23    10    11   ar
    24    11    12   ar
    25    12    13   ar
    26    13    14    1
    27    13    15   ar
    28     1     2    1
    29     2     3    1
    30     3     4    1
    31     4     5   am
    32     5     6    2
    33     5    16    1
    34    16    20    1
    35    20    21   ar
    36    20    22   ar
    37    16    17    1
    38    17    18    1
    39    18    19    1
    40     4     7    1
    41     7     8    1
    42    42    34   ar
    43    31    25    1
    44     8     1    1
    45    41    36   ar
    46    32    27    1
    47    15     9   ar
    48    19    16    1
