@<TRIPOS>MOLECULE
*****
 43 47 0 0 0
SMALL
GASTEIGER

@<TRIPOS>ATOM
      1 N         141.9493  138.1689  158.2679 N.3     1  UNL1       -0.2689
      2 C         140.4916  138.3923  158.5424 C.3     1  UNL1        0.0741
      3 C         140.0400  138.7954  159.9149 C.3     1  UNL1        0.0369
      4 C         141.0461  138.9752  161.0128 C.3     1  UNL1        0.0747
      5 C         142.5038  138.7519  160.7383 C.3     1  UNL1        0.0369
      6 C         142.9554  138.3488  159.3659 C.3     1  UNL1        0.0741
      7 N         140.5945  139.3784  162.3852 N.am    1  UNL1       -0.2999
      8 C         140.4689  138.3466  163.4667 C.2     1  UNL1        0.2806
      9 O         140.7949  136.9117  163.1758 O.2     1  UNL1       -0.2668
     10 H         140.3805  140.3202  162.5761 H       1  UNL1        0.1498
     11 C         140.0173  138.7498  164.8391 C.ar    1  UNL1        0.2014
     12 C         138.7570  138.1736  165.4134 C.ar    1  UNL1        0.0843
     13 C         138.3054  138.5768  166.7857 C.ar    1  UNL1        0.2018
     14 O         137.0451  138.0006  167.3600 O.2     1  UNL1       -0.2864
     15 C         139.1140  139.5562  167.5839 C.ar    1  UNL1        0.0737
     16 C         138.6624  139.9593  168.9563 C.ar    1  UNL1        0.0085
     17 C         139.4710  140.9387  169.7544 C.ar    1  UNL1        0.0299
     18 C         140.7312  141.5148  169.1801 C.ar    1  UNL1        0.1432
     19 F         141.5399  142.4942  169.9783 F       1  UNL1       -0.2041
     20 C         141.1829  141.1117  167.8077 C.ar    1  UNL1        0.0672
     21 C         140.3743  140.1323  167.0097 C.ar    1  UNL1        0.1508
     22 O         140.8259  139.7291  165.6372 O.2     1  UNL1       -0.4486
     23 C         142.4009  137.7658  156.8955 C.3     1  UNL1        0.0991
     24 C         141.9474  133.4987  155.5406 C.ar    1  UNL1        0.0533
     25 C         141.0825  134.5703  154.9460 C.ar    1  UNL1        0.0042
     26 C         141.2337  135.9927  155.3976 C.ar    1  UNL1       -0.0028
     27 C         142.2497  136.3434  156.4439 C.ar    1  UNL1       -0.0061
     28 C         143.1145  135.2718  157.0384 C.ar    1  UNL1       -0.0028
     29 C         142.9634  133.8494  156.5868 C.ar    1  UNL1        0.0042
     30 O         140.4357  131.5314  154.7694 O.2     1  UNL1       -0.2701
     31 C         141.7962  132.0763  155.0889 C.2     1  UNL1        0.2459
     32 N         143.0055  131.1988  154.9568 N.am    1  UNL1       -0.2994
     33 H         143.8985  131.5564  155.1665 H       1  UNL1        0.1498
     34 C         142.8544  129.7764  154.5051 C.3     1  UNL1        0.1070
     35 C         143.6471  128.6902  155.1698 C.3     1  UNL1        0.0936
     36 N         143.5318  128.4761  156.6500 N.3     1  UNL1       -0.2709
     37 C         144.5469  129.0776  157.5761 C.3     1  UNL1        0.0778
     38 C         144.4316  128.8636  159.0563 C.3     1  UNL1        0.0839
     39 C         143.3012  128.0481  159.6104 C.3     1  UNL1        0.2666
     40 F         142.4166  127.3583  160.6062 F       1  UNL1       -0.2042
     41 F         144.0092  128.4100  160.8823 F       1  UNL1       -0.2042
     42 C         142.2860  127.4466  158.6843 C.3     1  UNL1        0.0839
     43 C         142.4013  127.6606  157.2041 C.3     1  UNL1        0.0778
@<TRIPOS>BOND
     1    30    31    2
     2    31    32   am
     3    32    34    1
     4    34    35    1
     5    35    36    1
     6    36    37    1
     7    37    38    1
     8    38    39    1
     9    39    40    1
    10    39    41    1
    11    39    42    1
    12    42    43    1
    13    31    24    1
    14    24    25   ar
    15    25    26   ar
    16    26    27   ar
    17    27    23    1
    18    23     1    1
    19     1     2    1
    20     2     3    1
    21     3     4    1
    22     4     7    1
    23     7     8   am
    24     8     9    2
    25     8    11    1
    26    11    12   ar
    27    12    13   ar
    28    13    14    2
    29    13    15   ar
    30    15    16   ar
    31    16    17   ar
    32    17    18   ar
    33    18    19    1
    34    18    20   ar
    35    20    21   ar
    36    21    22   ar
    37     4     5    1
    38     5     6    1
    39    27    28   ar
    40    28    29   ar
    41    43    36    1
    42    29    24   ar
    43     6     1    1
    44    22    11   ar
    45    21    15   ar
    46    32    33    1
    47     7    10    1
@<TRIPOS>MOLECULE
*****
 43 47 0 0 0
SMALL
GASTEIGER

@<TRIPOS>ATOM
      1 N         141.5369  138.0323  158.5017 N.3     1  UNL1       -0.2689
      2 C         142.5874  137.8675  159.5597 C.3     1  UNL1        0.0741
      3 C         142.2333  138.0598  161.0046 C.3     1  UNL1        0.0369
      4 C         140.8287  138.4169  161.3915 C.3     1  UNL1        0.0747
      5 C         139.7783  138.5818  160.3335 C.3     1  UNL1        0.0369
      6 C         140.1323  138.3895  158.8886 C.3     1  UNL1        0.0741
      7 N         140.4747  138.6092  162.8363 N.am    1  UNL1       -0.2999
      8 C         140.7338  139.9277  163.5029 C.2     1  UNL1        0.2806
      9 O         141.3470  141.0539  162.7247 O.2     1  UNL1       -0.2668
     10 H         140.0723  137.8701  163.3471 H       1  UNL1        0.1498
     11 C         140.3798  140.1200  164.9479 C.ar    1  UNL1        0.2014
     12 C         139.3245  139.2630  165.5819 C.ar    1  UNL1        0.0843
     13 C         138.9705  139.4552  167.0268 C.ar    1  UNL1        0.2018
     14 O         137.9152  138.5982  167.6608 O.2     1  UNL1       -0.2864
     15 C         139.6716  140.5045  167.8376 C.ar    1  UNL1        0.0737
     16 C         139.3175  140.6967  169.2825 C.ar    1  UNL1        0.0085
     17 C         140.0187  141.7460  170.0933 C.ar    1  UNL1        0.0299
     18 C         141.0739  142.6030  169.4592 C.ar    1  UNL1        0.1432
     19 F         141.7750  143.6523  170.2701 F       1  UNL1       -0.2041
     20 C         141.4280  142.4108  168.0144 C.ar    1  UNL1        0.0672
     21 C         140.7268  141.3615  167.2036 C.ar    1  UNL1        0.1508
     22 O         141.0809  141.1693  165.7587 O.2     1  UNL1       -0.4486
     23 C         141.8909  137.8400  157.0568 C.3     1  UNL1        0.0991
     24 C         142.1855  133.6885  155.3457 C.ar    1  UNL1        0.0533
     25 C         143.1784  134.1492  156.3712 C.ar    1  UNL1        0.0042
     26 C         143.0803  135.5331  156.9416 C.ar    1  UNL1       -0.0028
     27 C         141.9891  136.4562  156.4865 C.ar    1  UNL1       -0.0061
     28 C         140.9961  135.9954  155.4610 C.ar    1  UNL1       -0.0028
     29 C         141.0943  134.6116  154.8906 C.ar    1  UNL1        0.0042
     30 O         143.2607  132.0146  153.6747 O.2     1  UNL1       -0.2701
     31 C         142.2837  132.3046  154.7753 C.2     1  UNL1        0.2459
     32 N         141.4049  131.2108  155.3055 N.am    1  UNL1       -0.2994
     33 H         140.7636  131.4011  156.0279 H       1  UNL1        0.1498
     34 C         141.5031  129.8270  154.7351 C.3     1  UNL1        0.1070
     35 C         142.5946  128.9040  155.1899 C.3     1  UNL1        0.0936
     36 N         142.7633  128.6040  156.6499 N.3     1  UNL1       -0.2709
     37 C         141.9151  127.5530  157.3026 C.3     1  UNL1        0.0778
     38 C         142.0839  127.2531  158.7625 C.3     1  UNL1        0.0839
     39 C         143.1007  128.0042  159.5699 C.3     1  UNL1        0.2666
     40 F         143.9221  128.4432  160.7458 F       1  UNL1       -0.2042
     41 F         142.5378  127.1056  160.6309 F       1  UNL1       -0.2042
     42 C         143.9489  129.0552  158.9173 C.3     1  UNL1        0.0839
     43 C         143.7802  129.3552  157.4573 C.3     1  UNL1        0.0778
@<TRIPOS>BOND
     1    30    31    2
     2    31    32   am
     3    32    34    1
     4    34    35    1
     5    35    36    1
     6    36    37    1
     7    37    38    1
     8    38    39    1
     9    39    40    1
    10    39    41    1
    11    39    42    1
    12    42    43    1
    13    31    24    1
    14    24    25   ar
    15    25    26   ar
    16    26    27   ar
    17    27    23    1
    18    23     1    1
    19     1     2    1
    20     2     3    1
    21     3     4    1
    22     4     7    1
    23     7     8   am
    24     8     9    2
    25     8    11    1
    26    11    12   ar
    27    12    13   ar
    28    13    14    2
    29    13    15   ar
    30    15    16   ar
    31    16    17   ar
    32    17    18   ar
    33    18    19    1
    34    18    20   ar
    35    20    21   ar
    36    21    22   ar
    37     4     5    1
    38     5     6    1
    39    27    28   ar
    40    28    29   ar
    41    43    36    1
    42    29    24   ar
    43     6     1    1
    44    22    11   ar
    45    21    15   ar
    46    32    33    1
    47     7    10    1
@<TRIPOS>MOLECULE
*****
 43 47 0 0 0
SMALL
GASTEIGER

@<TRIPOS>ATOM
      1 N         143.4033  141.9190  156.3260 N.3     1  UNL1       -0.2689
      2 C         144.7421  141.2543  156.2005 C.3     1  UNL1        0.0741
      3 C         144.8258  139.7890  155.8905 C.3     1  UNL1        0.0369
      4 C         143.5707  138.9885  155.7061 C.3     1  UNL1        0.0747
      5 C         142.2319  139.6533  155.8316 C.3     1  UNL1        0.0369
      6 C         142.1482  141.1185  156.1416 C.3     1  UNL1        0.0741
      7 N         143.6545  137.5233  155.3961 N.am    1  UNL1       -0.2999
      8 C         143.3575  136.5126  156.4639 C.2     1  UNL1        0.2806
      9 O         142.9769  136.9671  157.8418 O.2     1  UNL1       -0.2668
     10 H         143.9043  137.2250  154.4918 H       1  UNL1        0.1498
     11 C         143.4413  135.0474  156.1539 C.ar    1  UNL1        0.2014
     12 C         142.9396  134.5292  154.8387 C.ar    1  UNL1        0.0843
     13 C         143.0234  133.0640  154.5286 C.ar    1  UNL1        0.2018
     14 O         142.5217  132.5459  153.2134 O.2     1  UNL1       -0.2864
     15 C         143.6088  132.1169  155.5338 C.ar    1  UNL1        0.0737
     16 C         143.6925  130.6517  155.2237 C.ar    1  UNL1        0.0085
     17 C         144.2779  129.7047  156.2289 C.ar    1  UNL1        0.0299
     18 C         144.7796  130.2229  157.5441 C.ar    1  UNL1        0.1432
     19 F         145.3651  129.2758  158.5493 F       1  UNL1       -0.2041
     20 C         144.6959  131.6880  157.8542 C.ar    1  UNL1        0.0672
     21 C         144.1105  132.6351  156.8490 C.ar    1  UNL1        0.1508
     22 O         144.0267  134.1003  157.1590 O.2     1  UNL1       -0.4486
     23 C         143.3195  143.3842  156.6360 C.3     1  UNL1        0.0991
     24 C         141.0108  144.7950  160.2318 C.ar    1  UNL1        0.0533
     25 C         141.9578  143.6383  160.3550 C.ar    1  UNL1        0.0042
     26 C         142.7274  143.1680  159.1564 C.ar    1  UNL1       -0.0028
     27 C         142.5500  143.8545  157.8346 C.ar    1  UNL1       -0.0061
     28 C         141.6030  145.0112  157.7114 C.ar    1  UNL1       -0.0028
     29 C         140.8334  145.4814  158.9100 C.ar    1  UNL1        0.0042
     30 O         139.2954  146.4229  161.3075 O.2     1  UNL1       -0.2701
     31 C         140.2413  145.2652  161.4304 C.2     1  UNL1        0.2459
     32 N         140.4176  144.5778  162.7519 N.am    1  UNL1       -0.2994
     33 H         141.0384  143.8180  162.8326 H       1  UNL1        0.1498
     34 C         139.6480  145.0481  163.9505 C.3     1  UNL1        0.1070
     35 C         138.4503  144.2780  164.4222 C.3     1  UNL1        0.0936
     36 N         138.3088  142.8253  164.0763 N.3     1  UNL1       -0.2709
     37 C         138.7884  141.7759  165.0347 C.3     1  UNL1        0.0778
     38 C         138.6469  140.3232  164.6888 C.3     1  UNL1        0.0839
     39 C         138.0258  139.9199  163.3844 C.3     1  UNL1        0.2666
     40 F         137.5089  139.0468  162.2796 F       1  UNL1       -0.2042
     41 F         138.3259  138.5673  163.9592 F       1  UNL1       -0.2042
     42 C         137.5461  140.9693  162.4259 C.3     1  UNL1        0.0839
     43 C         137.6876  142.4220  162.7718 C.3     1  UNL1        0.0778
@<TRIPOS>BOND
     1    30    31    2
     2    31    32   am
     3    32    34    1
     4    34    35    1
     5    35    36    1
     6    36    37    1
     7    37    38    1
     8    38    39    1
     9    39    40    1
    10    39    41    1
    11    39    42    1
    12    42    43    1
    13    31    24    1
    14    24    25   ar
    15    25    26   ar
    16    26    27   ar
    17    27    23    1
    18    23     1    1
    19     1     2    1
    20     2     3    1
    21     3     4    1
    22     4     7    1
    23     7     8   am
    24     8     9    2
    25     8    11    1
    26    11    12   ar
    27    12    13   ar
    28    13    14    2
    29    13    15   ar
    30    15    16   ar
    31    16    17   ar
    32    17    18   ar
    33    18    19    1
    34    18    20   ar
    35    20    21   ar
    36    21    22   ar
    37     4     5    1
    38     5     6    1
    39    27    28   ar
    40    28    29   ar
    41    43    36    1
    42    29    24   ar
    43     6     1    1
    44    22    11   ar
    45    21    15   ar
    46    32    33    1
    47     7    10    1
@<TRIPOS>MOLECULE
*****
 43 47 0 0 0
SMALL
GASTEIGER

@<TRIPOS>ATOM
      1 N         142.3216  138.8853  158.5355 N.3     1  UNL1       -0.2689
      2 C         141.2267  138.3298  159.3974 C.3     1  UNL1        0.0741
      3 C         141.3044  138.4661  160.8892 C.3     1  UNL1        0.0369
      4 C         142.4770  139.1577  161.5191 C.3     1  UNL1        0.0747
      5 C         143.5718  139.7131  160.6573 C.3     1  UNL1        0.0369
      6 C         143.4942  139.5769  159.1655 C.3     1  UNL1        0.0741
      7 N         142.5546  139.2939  163.0109 N.am    1  UNL1       -0.2999
      8 C         141.7415  140.3416  163.7117 C.2     1  UNL1        0.2806
      9 O         140.8508  141.2532  162.9207 O.2     1  UNL1       -0.2668
     10 H         143.1392  138.6956  163.5300 H       1  UNL1        0.1498
     11 C         141.8192  140.4778  165.2035 C.ar    1  UNL1        0.2014
     12 C         142.5321  139.4374  166.0155 C.ar    1  UNL1        0.0843
     13 C         142.6098  139.5735  167.5072 C.ar    1  UNL1        0.2018
     14 O         143.3227  138.5330  168.3192 O.2     1  UNL1       -0.2864
     15 C         141.9746  140.7501  168.1871 C.ar    1  UNL1        0.0737
     16 C         142.0523  140.8862  169.6789 C.ar    1  UNL1        0.0085
     17 C         141.4171  142.0628  170.3587 C.ar    1  UNL1        0.0299
     18 C         140.7042  143.1032  169.5467 C.ar    1  UNL1        0.1432
     19 F         140.0690  144.2798  170.2266 F       1  UNL1       -0.2041
     20 C         140.6265  142.9671  168.0550 C.ar    1  UNL1        0.0672
     21 C         141.2617  141.7905  167.3752 C.ar    1  UNL1        0.1508
     22 O         141.1840  141.6544  165.8833 O.2     1  UNL1       -0.4486
     23 C         142.2440  138.7491  157.0438 C.3     1  UNL1        0.0991
     24 C         142.5741  134.6873  155.1350 C.ar    1  UNL1        0.0533
     25 C         141.2235  135.2773  155.4141 C.ar    1  UNL1        0.0042
     26 C         141.1135  136.6313  156.0504 C.ar    1  UNL1       -0.0028
     27 C         142.3540  137.3952  156.4075 C.ar    1  UNL1       -0.0061
     28 C         143.7045  136.8051  156.1284 C.ar    1  UNL1       -0.0028
     29 C         143.8145  135.4512  155.4922 C.ar    1  UNL1        0.0042
     30 O         141.8179  132.9836  153.3252 O.2     1  UNL1       -0.2701
     31 C         142.6841  133.3334  154.4987 C.2     1  UNL1        0.2459
     32 N         143.6603  132.3293  155.0360 N.am    1  UNL1       -0.2994
     33 H         144.2288  132.5589  155.8063 H       1  UNL1        0.1498
     34 C         143.7703  130.9754  154.3998 C.3     1  UNL1        0.1070
     35 C         144.5292  129.8814  155.0908 C.3     1  UNL1        0.0936
     36 N         144.0022  129.2929  156.3658 N.3     1  UNL1       -0.2709
     37 C         142.8911  128.2861  156.3242 C.3     1  UNL1        0.0778
     38 C         142.3641  127.6975  157.5992 C.3     1  UNL1        0.0839
     39 C         142.9481  128.1157  158.9160 C.3     1  UNL1        0.2666
     40 F         143.1735  128.1937  160.3970 F       1  UNL1       -0.2042
     41 F         141.9152  127.1360  159.3886 F       1  UNL1       -0.2042
     42 C         144.0593  129.1226  158.9577 C.3     1  UNL1        0.0839
     43 C         144.5863  129.7112  157.6827 C.3     1  UNL1        0.0778
@<TRIPOS>BOND
     1    30    31    2
     2    31    32   am
     3    32    34    1
     4    34    35    1
     5    35    36    1
     6    36    37    1
     7    37    38    1
     8    38    39    1
     9    39    40    1
    10    39    41    1
    11    39    42    1
    12    42    43    1
    13    31    24    1
    14    24    25   ar
    15    25    26   ar
    16    26    27   ar
    17    27    23    1
    18    23     1    1
    19     1     2    1
    20     2     3    1
    21     3     4    1
    22     4     7    1
    23     7     8   am
    24     8     9    2
    25     8    11    1
    26    11    12   ar
    27    12    13   ar
    28    13    14    2
    29    13    15   ar
    30    15    16   ar
    31    16    17   ar
    32    17    18   ar
    33    18    19    1
    34    18    20   ar
    35    20    21   ar
    36    21    22   ar
    37     4     5    1
    38     5     6    1
    39    27    28   ar
    40    28    29   ar
    41    43    36    1
    42    29    24   ar
    43     6     1    1
    44    22    11   ar
    45    21    15   ar
    46    32    33    1
    47     7    10    1
@<TRIPOS>MOLECULE
*****
 43 47 0 0 0
SMALL
GASTEIGER

@<TRIPOS>ATOM
      1 N         142.7535  141.3422  156.3931 N.3     1  UNL1       -0.2689
      2 C         144.0267  140.6464  156.0125 C.3     1  UNL1        0.0741
      3 C         144.0388  139.1593  155.8157 C.3     1  UNL1        0.0369
      4 C         142.7778  138.3682  155.9997 C.3     1  UNL1        0.0747
      5 C         141.5046  139.0640  156.3803 C.3     1  UNL1        0.0369
      6 C         141.4925  140.5510  156.5770 C.3     1  UNL1        0.0741
      7 N         142.7899  136.8812  155.8029 N.am    1  UNL1       -0.2999
      8 C         142.9659  135.9702  156.9815 C.2     1  UNL1        0.2806
      9 O         143.1297  136.5461  158.3568 O.2     1  UNL1       -0.2668
     10 H         142.6824  136.5032  154.9003 H       1  UNL1        0.1498
     11 C         142.9780  134.4831  156.7847 C.ar    1  UNL1        0.2014
     12 C         144.0409  133.6490  157.4363 C.ar    1  UNL1        0.0843
     13 C         144.0531  132.1621  157.2396 C.ar    1  UNL1        0.2018
     14 O         145.1159  131.3280  157.8912 O.2     1  UNL1       -0.2864
     15 C         143.0024  131.5091  156.3912 C.ar    1  UNL1        0.0737
     16 C         143.0145  130.0222  156.1944 C.ar    1  UNL1        0.0085
     17 C         141.9639  129.3693  155.3460 C.ar    1  UNL1        0.0299
     18 C         140.9010  130.2034  154.6944 C.ar    1  UNL1        0.1432
     19 F         139.8503  129.5505  153.8460 F       1  UNL1       -0.2041
     20 C         140.8888  131.6904  154.8911 C.ar    1  UNL1        0.0672
     21 C         141.9395  132.3432  155.7395 C.ar    1  UNL1        0.1508
     22 O         141.9274  133.8303  155.9363 O.2     1  UNL1       -0.4486
     23 C         142.7414  142.8292  156.5898 C.3     1  UNL1        0.0991
     24 C         140.7240  144.6049  160.1991 C.ar    1  UNL1        0.0533
     25 C         140.0624  144.6841  158.8553 C.ar    1  UNL1        0.0042
     26 C         140.7349  144.0922  157.6522 C.ar    1  UNL1       -0.0028
     27 C         142.0689  143.4211  157.7929 C.ar    1  UNL1       -0.0061
     28 C         142.7305  143.3419  159.1368 C.ar    1  UNL1       -0.0028
     29 C         142.0580  143.9338  160.3399 C.ar    1  UNL1        0.0042
     30 O         139.3520  146.5194  161.2956 O.2     1  UNL1       -0.2701
     31 C         140.0515  145.1968  161.4022 C.2     1  UNL1        0.2459
     32 N         140.0785  144.4661  162.7119 N.am    1  UNL1       -0.2994
     33 H         140.5376  143.5980  162.7819 H       1  UNL1        0.1498
     34 C         139.4061  145.0580  163.9150 C.3     1  UNL1        0.1070
     35 C         138.4383  144.2360  164.7136 C.3     1  UNL1        0.0936
     36 N         138.6796  142.7677  164.9033 N.3     1  UNL1       -0.2709
     37 C         137.8571  141.7683  164.1454 C.3     1  UNL1        0.0778
     38 C         138.0984  140.3001  164.3351 C.3     1  UNL1        0.0839
     39 C         139.1623  139.8312  165.2829 C.3     1  UNL1        0.2666
     40 F         140.0473  138.9033  166.0613 F       1  UNL1       -0.2042
     41 F         138.6471  138.5096  164.7952 F       1  UNL1       -0.2042
     42 C         139.9849  140.8306  166.0409 C.3     1  UNL1        0.0839
     43 C         139.7436  142.2989  165.8511 C.3     1  UNL1        0.0778
@<TRIPOS>BOND
     1    30    31    2
     2    31    32   am
     3    32    34    1
     4    34    35    1
     5    35    36    1
     6    36    37    1
     7    37    38    1
     8    38    39    1
     9    39    40    1
    10    39    41    1
    11    39    42    1
    12    42    43    1
    13    31    24    1
    14    24    25   ar
    15    25    26   ar
    16    26    27   ar
    17    27    23    1
    18    23     1    1
    19     1     2    1
    20     2     3    1
    21     3     4    1
    22     4     7    1
    23     7     8   am
    24     8     9    2
    25     8    11    1
    26    11    12   ar
    27    12    13   ar
    28    13    14    2
    29    13    15   ar
    30    15    16   ar
    31    16    17   ar
    32    17    18   ar
    33    18    19    1
    34    18    20   ar
    35    20    21   ar
    36    21    22   ar
    37     4     5    1
    38     5     6    1
    39    27    28   ar
    40    28    29   ar
    41    43    36    1
    42    29    24   ar
    43     6     1    1
    44    22    11   ar
    45    21    15   ar
    46    32    33    1
    47     7    10    1
@<TRIPOS>MOLECULE
*****
 43 47 0 0 0
SMALL
GASTEIGER

@<TRIPOS>ATOM
      1 N         141.8057  138.2901  158.4173 N.3     1  UNL1       -0.2689
      2 C         142.9084  138.7292  159.3346 C.3     1  UNL1        0.0741
      3 C         142.5851  139.2209  160.7144 C.3     1  UNL1        0.0369
      4 C         141.1592  139.2736  161.1769 C.3     1  UNL1        0.0747
      5 C         140.0565  138.8346  160.2596 C.3     1  UNL1        0.0369
      6 C         140.3797  138.3429  158.8799 C.3     1  UNL1        0.0741
      7 N         140.8360  139.7653  162.5566 N.am    1  UNL1       -0.2999
      8 C         140.6200  138.7846  163.6709 C.2     1  UNL1        0.2806
      9 O         140.7272  137.3122  163.4054 O.2     1  UNL1       -0.2668
     10 H         140.7656  140.7317  162.7308 H       1  UNL1        0.1498
     11 C         140.2967  139.2764  165.0507 C.ar    1  UNL1        0.2014
     12 C         139.1171  138.7168  165.7891 C.ar    1  UNL1        0.0843
     13 C         138.7938  139.2085  167.1688 C.ar    1  UNL1        0.2018
     14 O         137.6142  138.6489  167.9073 O.2     1  UNL1       -0.2864
     15 C         139.6502  140.2599  167.8102 C.ar    1  UNL1        0.0737
     16 C         139.3270  140.7516  169.1899 C.ar    1  UNL1        0.0085
     17 C         140.1834  141.8030  169.8311 C.ar    1  UNL1        0.0299
     18 C         141.3630  142.3626  169.0927 C.ar    1  UNL1        0.1432
     19 F         142.2194  143.4139  169.7340 F       1  UNL1       -0.2041
     20 C         141.6863  141.8708  167.7130 C.ar    1  UNL1        0.0672
     21 C         140.8299  140.8195  167.0717 C.ar    1  UNL1        0.1508
     22 O         141.1531  140.3277  165.6919 O.2     1  UNL1       -0.4486
     23 C         142.1289  137.7984  157.0376 C.3     1  UNL1        0.0991
     24 C         142.6477  133.3926  156.2832 C.ar    1  UNL1        0.0533
     25 C         143.4175  134.0608  157.3835 C.ar    1  UNL1        0.0042
     26 C         143.2446  135.5294  157.6350 C.ar    1  UNL1       -0.0028
     27 C         142.3019  136.3298  156.7861 C.ar    1  UNL1       -0.0061
     28 C         141.5321  135.6616  155.6858 C.ar    1  UNL1       -0.0028
     29 C         141.7050  134.1929  155.4343 C.ar    1  UNL1        0.0042
     30 O         142.8086  131.3970  154.6274 O.2     1  UNL1       -0.2701
     31 C         142.8207  131.9239  156.0317 C.2     1  UNL1        0.2459
     32 N         143.0057  130.9823  157.1845 N.am    1  UNL1       -0.2994
     33 H         143.0136  131.3282  158.1062 H       1  UNL1        0.1498
     34 C         143.1786  129.5137  156.9330 C.3     1  UNL1        0.1070
     35 C         142.9296  128.5293  158.0372 C.3     1  UNL1        0.0936
     36 N         144.0232  128.2011  159.0101 N.3     1  UNL1       -0.2709
     37 C         145.4501  128.5111  158.6671 C.3     1  UNL1        0.0778
     38 C         146.5436  128.1829  159.6400 C.3     1  UNL1        0.0839
     39 C         146.2102  127.5448  160.9558 C.3     1  UNL1        0.2666
     40 F         146.3946  126.9415  162.3168 F       1  UNL1       -0.2042
     41 F         147.7013  127.6453  161.0855 F       1  UNL1       -0.2042
     42 C         144.7832  127.2347  161.2989 C.3     1  UNL1        0.0839
     43 C         143.6897  127.5629  160.3260 C.3     1  UNL1        0.0778
@<TRIPOS>BOND
     1    30    31    2
     2    31    32   am
     3    32    34    1
     4    34    35    1
     5    35    36    1
     6    36    37    1
     7    37    38    1
     8    38    39    1
     9    39    40    1
    10    39    41    1
    11    39    42    1
    12    42    43    1
    13    31    24    1
    14    24    25   ar
    15    25    26   ar
    16    26    27   ar
    17    27    23    1
    18    23     1    1
    19     1     2    1
    20     2     3    1
    21     3     4    1
    22     4     7    1
    23     7     8   am
    24     8     9    2
    25     8    11    1
    26    11    12   ar
    27    12    13   ar
    28    13    14    2
    29    13    15   ar
    30    15    16   ar
    31    16    17   ar
    32    17    18   ar
    33    18    19    1
    34    18    20   ar
    35    20    21   ar
    36    21    22   ar
    37     4     5    1
    38     5     6    1
    39    27    28   ar
    40    28    29   ar
    41    43    36    1
    42    29    24   ar
    43     6     1    1
    44    22    11   ar
    45    21    15   ar
    46    32    33    1
    47     7    10    1
@<TRIPOS>MOLECULE
*****
 43 47 0 0 0
SMALL
GASTEIGER

@<TRIPOS>ATOM
      1 N         138.5921  139.4647  164.1986 N.3     1  UNL1       -0.2689
      2 C         139.1826  138.1220  163.8849 C.3     1  UNL1        0.0741
      3 C         139.5064  137.7580  162.4661 C.3     1  UNL1        0.0369
      4 C         139.2396  138.7368  161.3612 C.3     1  UNL1        0.0747
      5 C         138.6491  140.0795  161.6750 C.3     1  UNL1        0.0369
      6 C         138.3253  140.4434  163.0936 C.3     1  UNL1        0.0741
      7 N         139.5633  138.3728  159.9426 N.am    1  UNL1       -0.2999
      8 C         140.9843  138.4122  159.4637 C.2     1  UNL1        0.2806
      9 O         142.0815  138.8156  160.4035 O.2     1  UNL1       -0.2668
     10 H         138.8432  138.1080  159.3257 H       1  UNL1        0.1498
     11 C         141.3080  138.0482  158.0450 C.ar    1  UNL1        0.2014
     12 C         142.7336  138.0446  157.5782 C.ar    1  UNL1        0.0843
     13 C         143.0573  137.6806  156.1595 C.ar    1  UNL1        0.2018
     14 O         144.4828  137.6770  155.6928 O.2     1  UNL1       -0.2864
     15 C         141.9555  137.3202  155.2075 C.ar    1  UNL1        0.0737
     16 C         142.2792  136.9563  153.7889 C.ar    1  UNL1        0.0085
     17 C         141.1775  136.5959  152.8370 C.ar    1  UNL1        0.0299
     18 C         139.7519  136.5996  153.3037 C.ar    1  UNL1        0.1432
     19 F         138.6501  136.2392  152.3517 F       1  UNL1       -0.2041
     20 C         139.4282  136.9635  154.7224 C.ar    1  UNL1        0.0672
     21 C         140.5300  137.3239  155.6743 C.ar    1  UNL1        0.1508
     22 O         140.2062  137.6879  157.0930 O.2     1  UNL1       -0.4486
     23 C         138.2683  139.8287  165.6173 C.3     1  UNL1        0.0991
     24 C         141.5847  140.7389  168.5196 C.ar    1  UNL1        0.0533
     25 C         140.2868  140.1749  169.0167 C.ar    1  UNL1        0.0042
     26 C         139.1813  139.8715  168.0493 C.ar    1  UNL1       -0.0028
     27 C         139.3738  140.1321  166.5847 C.ar    1  UNL1       -0.0061
     28 C         140.6717  140.6961  166.0876 C.ar    1  UNL1       -0.0028
     29 C         141.7772  140.9996  167.0550 C.ar    1  UNL1        0.0042
     30 O         143.2927  139.9404  170.3071 O.2     1  UNL1       -0.2701
     31 C         142.6902  141.0424  169.4870 C.2     1  UNL1        0.2459
     32 N         143.1931  142.4478  169.6344 N.am    1  UNL1       -0.2994
     33 H         142.7977  143.1711  169.0961 H       1  UNL1        0.1498
     34 C         144.2986  142.7512  170.6018 C.3     1  UNL1        0.1070
     35 C         145.4577  143.6015  170.1734 C.3     1  UNL1        0.0936
     36 N         146.1129  144.5264  171.1560 N.3     1  UNL1       -0.2709
     37 C         145.3248  145.6416  171.7767 C.3     1  UNL1        0.0778
     38 C         145.9799  146.5665  172.7592 C.3     1  UNL1        0.0839
     39 C         147.4231  146.3762  173.1210 C.3     1  UNL1        0.2666
     40 F         148.7531  146.6003  173.7776 F       1  UNL1       -0.2042
     41 F         147.0969  147.5692  173.9698 F       1  UNL1       -0.2042
     42 C         148.2113  145.2611  172.5003 C.3     1  UNL1        0.0839
     43 C         147.5561  144.3361  171.5177 C.3     1  UNL1        0.0778
@<TRIPOS>BOND
     1    30    31    2
     2    31    32   am
     3    32    34    1
     4    34    35    1
     5    35    36    1
     6    36    37    1
     7    37    38    1
     8    38    39    1
     9    39    40    1
    10    39    41    1
    11    39    42    1
    12    42    43    1
    13    31    24    1
    14    24    25   ar
    15    25    26   ar
    16    26    27   ar
    17    27    23    1
    18    23     1    1
    19     1     2    1
    20     2     3    1
    21     3     4    1
    22     4     7    1
    23     7     8   am
    24     8     9    2
    25     8    11    1
    26    11    12   ar
    27    12    13   ar
    28    13    14    2
    29    13    15   ar
    30    15    16   ar
    31    16    17   ar
    32    17    18   ar
    33    18    19    1
    34    18    20   ar
    35    20    21   ar
    36    21    22   ar
    37     4     5    1
    38     5     6    1
    39    27    28   ar
    40    28    29   ar
    41    43    36    1
    42    29    24   ar
    43     6     1    1
    44    22    11   ar
    45    21    15   ar
    46    32    33    1
    47     7    10    1
@<TRIPOS>MOLECULE
*****
 43 47 0 0 0
SMALL
GASTEIGER

@<TRIPOS>ATOM
      1 N         142.4788  140.6576  159.3201 N.3     1  UNL1       -0.2689
      2 C         141.1253  140.6900  159.9658 C.3     1  UNL1        0.0741
      3 C         141.0054  140.9005  161.4461 C.3     1  UNL1        0.0369
      4 C         142.2389  141.0785  162.2807 C.3     1  UNL1        0.0747
      5 C         143.5925  141.0460  161.6351 C.3     1  UNL1        0.0369
      6 C         143.7124  140.8356  160.1548 C.3     1  UNL1        0.0741
      7 N         142.1189  141.2890  163.7610 N.am    1  UNL1       -0.2999
      8 C         142.1169  140.1101  164.6885 C.2     1  UNL1        0.2806
      9 O         142.2350  138.7207  164.1357 O.2     1  UNL1       -0.2668
     10 H         142.0415  142.2009  164.1239 H       1  UNL1        0.1498
     11 C         141.9970  140.3206  166.1688 C.ar    1  UNL1        0.2014
     12 C         142.5659  139.3088  167.1188 C.ar    1  UNL1        0.0843
     13 C         142.4460  139.5193  168.5991 C.ar    1  UNL1        0.2018
     14 O         143.0150  138.5074  169.5491 O.2     1  UNL1       -0.2864
     15 C         141.7570  140.7416  169.1295 C.ar    1  UNL1        0.0737
     16 C         141.6370  140.9521  170.6097 C.ar    1  UNL1        0.0085
     17 C         140.9481  142.1744  171.1400 C.ar    1  UNL1        0.0299
     18 C         140.3791  143.1862  170.1900 C.ar    1  UNL1        0.1432
     19 F         139.6901  144.4086  170.7204 F       1  UNL1       -0.2041
     20 C         140.4990  142.9758  168.7098 C.ar    1  UNL1        0.0672
     21 C         141.1880  141.7535  168.1795 C.ar    1  UNL1        0.1508
     22 O         141.3080  141.5429  166.6991 O.2     1  UNL1       -0.4486
     23 C         142.5988  140.4471  157.8398 C.3     1  UNL1        0.0991
     24 C         143.2445  136.3062  156.2010 C.ar    1  UNL1        0.0533
     25 C         143.4385  137.5017  155.3161 C.ar    1  UNL1        0.0042
     26 C         143.2232  138.8820  155.8624 C.ar    1  UNL1       -0.0028
     27 C         142.8141  139.0668  157.2936 C.ar    1  UNL1       -0.0061
     28 C         142.6201  137.8713  158.1785 C.ar    1  UNL1       -0.0028
     29 C         142.8354  136.4910  157.6322 C.ar    1  UNL1        0.0042
     30 O         143.0317  134.5980  154.2550 O.2     1  UNL1       -0.2701
     31 C         143.4597  134.9259  155.6547 C.2     1  UNL1        0.2459
     32 N         144.1030  133.8734  156.5081 N.am    1  UNL1       -0.2994
     33 H         144.3840  134.0885  157.4268 H       1  UNL1        0.1498
     34 C         144.3183  132.4931  155.9618 C.3     1  UNL1        0.1070
     35 C         143.4932  131.3481  156.4703 C.3     1  UNL1        0.0936
     36 N         142.4287  130.7467  155.6012 N.3     1  UNL1       -0.2709
     37 C         142.3453  129.2579  155.4392 C.3     1  UNL1        0.0778
     38 C         141.2808  128.6565  154.5702 C.3     1  UNL1        0.0839
     39 C         140.2998  129.5439  153.8631 C.3     1  UNL1        0.2666
     40 F         139.1512  129.9652  152.9951 F       1  UNL1       -0.2042
     41 F         139.8174  128.2013  153.3997 F       1  UNL1       -0.2042
     42 C         140.3832  131.0329  154.0251 C.3     1  UNL1        0.0839
     43 C         141.4476  131.6343  154.8942 C.3     1  UNL1        0.0778
@<TRIPOS>BOND
     1    30    31    2
     2    31    32   am
     3    32    34    1
     4    34    35    1
     5    35    36    1
     6    36    37    1
     7    37    38    1
     8    38    39    1
     9    39    40    1
    10    39    41    1
    11    39    42    1
    12    42    43    1
    13    31    24    1
    14    24    25   ar
    15    25    26   ar
    16    26    27   ar
    17    27    23    1
    18    23     1    1
    19     1     2    1
    20     2     3    1
    21     3     4    1
    22     4     7    1
    23     7     8   am
    24     8     9    2
    25     8    11    1
    26    11    12   ar
    27    12    13   ar
    28    13    14    2
    29    13    15   ar
    30    15    16   ar
    31    16    17   ar
    32    17    18   ar
    33    18    19    1
    34    18    20   ar
    35    20    21   ar
    36    21    22   ar
    37     4     5    1
    38     5     6    1
    39    27    28   ar
    40    28    29   ar
    41    43    36    1
    42    29    24   ar
    43     6     1    1
    44    22    11   ar
    45    21    15   ar
    46    32    33    1
    47     7    10    1
@<TRIPOS>MOLECULE
*****
 43 47 0 0 0
SMALL
GASTEIGER

@<TRIPOS>ATOM
      1 N         142.1841  138.9580  156.3198 N.3     1  UNL1       -0.2689
      2 C         142.0223  138.0836  157.5278 C.3     1  UNL1        0.0741
      3 C         142.5819  136.6918  157.5265 C.3     1  UNL1        0.0369
      4 C         143.3032  136.1745  156.3174 C.3     1  UNL1        0.0747
      5 C         143.4649  137.0489  155.1094 C.3     1  UNL1        0.0369
      6 C         142.9054  138.4406  155.1106 C.3     1  UNL1        0.0741
      7 N         143.8627  134.7828  156.3162 N.am    1  UNL1       -0.2999
      8 C         142.9772  133.6187  155.9832 C.2     1  UNL1        0.2806
      9 O         141.5322  133.8464  155.6514 O.2     1  UNL1       -0.2668
     10 H         144.8111  134.6334  156.5340 H       1  UNL1        0.1498
     11 C         143.5368  132.2270  155.9820 C.ar    1  UNL1        0.2014
     12 C         143.8353  131.5397  154.6826 C.ar    1  UNL1        0.0843
     13 C         144.3948  130.1480  154.6814 C.ar    1  UNL1        0.2018
     14 O         144.6933  129.4608  153.3819 O.2     1  UNL1       -0.2864
     15 C         144.6559  129.4435  155.9797 C.ar    1  UNL1        0.0737
     16 C         145.2155  128.0518  155.9785 C.ar    1  UNL1        0.0085
     17 C         145.4766  127.3474  157.2767 C.ar    1  UNL1        0.0299
     18 C         145.1781  128.0346  158.5762 C.ar    1  UNL1        0.1432
     19 F         145.4392  127.3301  159.8745 F       1  UNL1       -0.2041
     20 C         144.6186  129.4263  158.5774 C.ar    1  UNL1        0.0672
     21 C         144.3575  130.1307  157.2791 C.ar    1  UNL1        0.1508
     22 O         143.7979  131.5225  157.2803 O.2     1  UNL1       -0.4486
     23 C         141.6246  140.3497  156.3209 C.3     1  UNL1        0.0991
     24 C         139.3218  141.8460  159.8858 C.ar    1  UNL1        0.0533
     25 C         138.6111  141.1103  158.7888 C.ar    1  UNL1        0.0042
     26 C         139.3787  140.6116  157.6005 C.ar    1  UNL1       -0.0028
     27 C         140.8570  140.8485  157.5092 C.ar    1  UNL1       -0.0061
     28 C         141.5677  141.5841  158.6063 C.ar    1  UNL1       -0.0028
     29 C         140.8001  142.0829  159.7946 C.ar    1  UNL1        0.0042
     30 O         137.5285  141.4663  161.7270 O.2     1  UNL1       -0.2701
     31 C         138.5542  142.3447  161.0741 C.2     1  UNL1        0.2459
     32 N         138.8124  143.7219  161.6096 N.am    1  UNL1       -0.2994
     33 H         139.4856  144.2985  161.1811 H       1  UNL1        0.1498
     34 C         138.0448  144.2207  162.7979 C.3     1  UNL1        0.1070
     35 C         138.7770  144.7444  163.9977 C.3     1  UNL1        0.0936
     36 N         140.2140  144.3757  164.2194 N.3     1  UNL1       -0.2709
     37 C         140.5606  143.1690  165.0402 C.3     1  UNL1        0.0778
     38 C         141.9975  142.8003  165.2619 C.3     1  UNL1        0.0839
     39 C         143.0879  143.6382  164.6627 C.3     1  UNL1        0.2666
     40 F         144.4647  144.1145  164.3056 F       1  UNL1       -0.2042
     41 F         143.9127  142.5969  165.3596 F       1  UNL1       -0.2042
     42 C         142.7413  144.8449  163.8419 C.3     1  UNL1        0.0839
     43 C         141.3043  145.2137  163.6202 C.3     1  UNL1        0.0778
@<TRIPOS>BOND
     1    30    31    2
     2    31    32   am
     3    32    34    1
     4    34    35    1
     5    35    36    1
     6    36    37    1
     7    37    38    1
     8    38    39    1
     9    39    40    1
    10    39    41    1
    11    39    42    1
    12    42    43    1
    13    31    24    1
    14    24    25   ar
    15    25    26   ar
    16    26    27   ar
    17    27    23    1
    18    23     1    1
    19     1     2    1
    20     2     3    1
    21     3     4    1
    22     4     7    1
    23     7     8   am
    24     8     9    2
    25     8    11    1
    26    11    12   ar
    27    12    13   ar
    28    13    14    2
    29    13    15   ar
    30    15    16   ar
    31    16    17   ar
    32    17    18   ar
    33    18    19    1
    34    18    20   ar
    35    20    21   ar
    36    21    22   ar
    37     4     5    1
    38     5     6    1
    39    27    28   ar
    40    28    29   ar
    41    43    36    1
    42    29    24   ar
    43     6     1    1
    44    22    11   ar
    45    21    15   ar
    46    32    33    1
    47     7    10    1
