@<TRIPOS>MOLECULE
*****
 19 21 0 0 0
SMALL
GASTEIGER

@<TRIPOS>ATOM
      1 C         138.3030  139.2735  163.4819 C.3     1  UNL1        0.0313
      2 C         138.0437  138.6068  162.1635 C.3     1  UNL1        0.0222
      3 C         137.3704  139.6018  161.2654 C.3     1  UNL1        0.0689
      4 N         137.2135  140.8835  162.0288 N.3     1  UNL1       -0.2972
      5 C         137.7899  140.6806  163.3987 C.3     1  UNL1        0.0723
      6 H         136.2250  141.1244  162.1013 H       1  UNL1        0.1233
      7 C         138.6863  139.6632  164.8789 C.2     1  UNL1       -0.0390
      8 C         138.2185  138.8400  166.0422 C.2     1  UNL1       -0.0066
      9 C         138.6018  139.2296  167.4391 C.2     1  UNL1        0.0182
     10 C         139.4528  140.4426  167.6726 C.2     1  UNL1        0.0777
     11 N         139.9860  141.0681  168.9273 N.2     1  UNL1       -0.2442
     12 C         140.7833  142.2780  168.5394 C.2     1  UNL1        0.0985
     13 C         140.7429  142.4002  167.0449 C.2     1  UNL1        0.0182
     14 C         139.9206  141.2658  166.5092 C.2     1  UNL1        0.0011
     15 C         139.5373  140.8761  165.1123 C.3     1  UNL1        0.0499
     16 C         138.8962  137.9480  163.8573 C.3     1  UNL1        0.0051
     17 C         140.2504  137.5596  163.3423 C.3     1  UNL1        0.0004
     18 C         142.0627  138.0636  165.1345 C.3     1  UNL1        0.0000
     19 C         141.3052  137.0786  164.2941 C.3     1  UNL1        0.0000
@<TRIPOS>BOND
     1    18    19    1
     2    19    17    1
     3    17    16    1
     4    16     1    1
     5     1     7    1
     6     7     8    2
     7     8     9    1
     8     9    10    2
     9    10    11    1
    10    11    12    2
    11    12    13    1
    12    13    14    2
    13    14    15    1
    14     1     2    1
    15     2     3    1
    16     3     4    1
    17     4     5    1
    18     5     1    1
    19    15     7    1
    20    14    10    1
    21     4     6    1
@<TRIPOS>MOLECULE
*****
 19 21 0 0 0
SMALL
GASTEIGER

@<TRIPOS>ATOM
      1 C         141.2113  140.0844  168.1165 C.3     1  UNL1        0.0313
      2 C         140.0178  140.1253  169.0241 C.3     1  UNL1        0.0222
      3 C         140.4910  139.8679  170.4240 C.3     1  UNL1        0.0689
      4 N         141.9770  139.6679  170.3816 N.3     1  UNL1       -0.2972
      5 C         142.4222  139.8017  168.9555 C.3     1  UNL1        0.0723
      6 H         142.2114  138.7390  170.7317 H       1  UNL1        0.1233
      7 C         142.1948  140.1035  166.9840 C.2     1  UNL1       -0.0390
      8 C         142.6032  138.8202  166.3237 C.2     1  UNL1       -0.0066
      9 C         143.5867  138.8392  165.1912 C.2     1  UNL1        0.0182
     10 C         144.1616  140.1417  164.7191 C.2     1  UNL1        0.0777
     11 N         145.1435  140.4708  163.6339 N.2     1  UNL1       -0.2442
     12 C         145.3419  141.9575  163.6236 C.2     1  UNL1        0.0985
     13 C         144.4826  142.5474  164.7023 C.2     1  UNL1        0.0182
     14 C         143.7531  141.4251  165.3794 C.2     1  UNL1        0.0011
     15 C         142.7697  141.4060  166.5119 C.3     1  UNL1        0.0499
     16 C         140.2061  140.3711  167.0408 C.3     1  UNL1        0.0051
     17 C         138.9442  139.5643  166.9592 C.3     1  UNL1        0.0004
     18 C         139.0775  137.7318  165.1222 C.3     1  UNL1        0.0000
     19 C         138.4912  139.0116  165.6404 C.3     1  UNL1        0.0000
@<TRIPOS>BOND
     1    18    19    1
     2    19    17    1
     3    17    16    1
     4    16     1    1
     5     1     7    1
     6     7     8    2
     7     8     9    1
     8     9    10    2
     9    10    11    1
    10    11    12    2
    11    12    13    1
    12    13    14    2
    13    14    15    1
    14     1     2    1
    15     2     3    1
    16     3     4    1
    17     4     5    1
    18     5     1    1
    19    15     7    1
    20    14    10    1
    21     4     6    1
@<TRIPOS>MOLECULE
*****
 19 21 0 0 0
SMALL
GASTEIGER

@<TRIPOS>ATOM
      1 C         140.8606  140.2071  168.0313 C.3     1  UNL1        0.0313
      2 C         141.9937  139.8848  168.9597 C.3     1  UNL1        0.0222
      3 C         141.4282  139.7102  170.3380 C.3     1  UNL1        0.0689
      4 N         139.9456  139.9245  170.2614 N.3     1  UNL1       -0.2972
      5 C         139.5947  140.2317  168.8358 C.3     1  UNL1        0.0723
      6 H         139.6774  140.7058  170.8599 H       1  UNL1        0.1233
      7 C         139.9522  140.5388  166.8845 C.2     1  UNL1       -0.0390
      8 C         139.0084  139.5022  166.3512 C.2     1  UNL1       -0.0066
      9 C         138.1001  139.8338  165.2044 C.2     1  UNL1        0.0182
     10 C         138.1357  141.2022  164.5910 C.2     1  UNL1        0.0777
     11 N         137.3648  141.8153  163.4597 N.2     1  UNL1       -0.2442
     12 C         137.8323  143.2309  163.2939 C.2     1  UNL1        0.0985
     13 C         138.8921  143.4927  164.3227 C.2     1  UNL1        0.0182
     14 C         139.0796  142.2388  165.1244 C.2     1  UNL1        0.0011
     15 C         139.9879  141.9071  166.2711 C.3     1  UNL1        0.0499
     16 C         141.9364  140.2519  166.9870 C.3     1  UNL1        0.0051
     17 C         142.9582  139.1561  166.9156 C.3     1  UNL1        0.0004
     18 C         141.9470  138.0077  164.8158 C.3     1  UNL1        0.0000
     19 C         143.1406  138.3824  165.6435 C.3     1  UNL1        0.0000
@<TRIPOS>BOND
     1    18    19    1
     2    19    17    1
     3    17    16    1
     4    16     1    1
     5     1     7    1
     6     7     8    2
     7     8     9    1
     8     9    10    2
     9    10    11    1
    10    11    12    2
    11    12    13    1
    12    13    14    2
    13    14    15    1
    14     1     2    1
    15     2     3    1
    16     3     4    1
    17     4     5    1
    18     5     1    1
    19    15     7    1
    20    14    10    1
    21     4     6    1
@<TRIPOS>MOLECULE
*****
 19 21 0 0 0
SMALL
GASTEIGER

@<TRIPOS>ATOM
      1 C         139.4834  142.3981  165.1417 C.3     1  UNL1        0.0313
      2 C         138.3790  142.0975  164.1723 C.3     1  UNL1        0.0222
      3 C         137.8576  143.4013  163.6449 C.3     1  UNL1        0.0689
      4 N         138.6398  144.5077  164.2883 N.3     1  UNL1       -0.2972
      5 C         139.6446  143.8877  165.2135 C.3     1  UNL1        0.0723
      6 H         138.0118  145.1143  164.8157 H       1  UNL1        0.1233
      7 C         140.6032  142.3869  166.1399 C.2     1  UNL1       -0.0390
      8 C         141.9752  141.9471  165.7229 C.2     1  UNL1       -0.0066
      9 C         143.0949  141.9359  166.7210 C.2     1  UNL1        0.0182
     10 C         142.8425  142.3645  168.1361 C.2     1  UNL1        0.0777
     11 N         143.7427  142.4577  169.3323 N.2     1  UNL1       -0.2442
     12 C         142.9269  142.9552  170.4886 C.2     1  UNL1        0.0985
     13 C         141.5225  143.1693  170.0070 C.2     1  UNL1        0.0182
     14 C         141.4704  142.8042  168.5531 C.2     1  UNL1        0.0011
     15 C         140.3507  142.8154  167.5550 C.3     1  UNL1        0.0499
     16 C         139.5564  140.9062  165.2788 C.3     1  UNL1        0.0051
     17 C         138.2956  140.0948  165.3252 C.3     1  UNL1        0.0004
     18 C         137.5601  138.4209  167.1711 C.3     1  UNL1        0.0000
     19 C         138.3142  138.7127  165.9077 C.3     1  UNL1        0.0000
@<TRIPOS>BOND
     1    18    19    1
     2    19    17    1
     3    17    16    1
     4    16     1    1
     5     1     7    1
     6     7     8    2
     7     8     9    1
     8     9    10    2
     9    10    11    1
    10    11    12    2
    11    12    13    1
    12    13    14    2
    13    14    15    1
    14     1     2    1
    15     2     3    1
    16     3     4    1
    17     4     5    1
    18     5     1    1
    19    15     7    1
    20    14    10    1
    21     4     6    1
@<TRIPOS>MOLECULE
*****
 19 21 0 0 0
SMALL
GASTEIGER

@<TRIPOS>ATOM
      1 C         140.5274  139.9690  167.7107 C.3     1  UNL1        0.0313
      2 C         141.4744  139.9776  168.8739 C.3     1  UNL1        0.0222
      3 C         140.6617  139.9240  170.1336 C.3     1  UNL1        0.0689
      4 N         139.2125  139.8822  169.7489 N.3     1  UNL1       -0.2972
      5 C         139.1294  139.9100  168.2514 C.3     1  UNL1        0.0723
      6 H         138.7277  140.6912  170.1375 H       1  UNL1        0.1233
      7 C         139.8426  139.9728  166.3761 C.2     1  UNL1       -0.0390
      8 C         139.2351  141.2386  165.8484 C.2     1  UNL1       -0.0066
      9 C         138.5503  141.2425  164.5138 C.2     1  UNL1        0.0182
     10 C         138.4732  139.9803  163.7069 C.2     1  UNL1        0.0777
     11 N         137.8670  139.6806  162.3680 N.2     1  UNL1       -0.2442
     12 C         138.1000  138.2295  162.0682 C.2     1  UNL1        0.0985
     13 C         138.8501  137.6323  163.2218 C.2     1  UNL1        0.0182
     14 C         139.0807  138.7145  164.2346 C.2     1  UNL1        0.0011
     15 C         139.7654  138.7107  165.5692 C.3     1  UNL1        0.0499
     16 C         141.7821  140.0287  166.8909 C.3     1  UNL1        0.0051
     17 C         142.9380  139.1322  167.2225 C.3     1  UNL1        0.0004
     18 C         143.4011  138.7575  164.6936 C.3     1  UNL1        0.0000
     19 C         143.6603  138.4038  166.1281 C.3     1  UNL1        0.0000
@<TRIPOS>BOND
     1    18    19    1
     2    19    17    1
     3    17    16    1
     4    16     1    1
     5     1     7    1
     6     7     8    2
     7     8     9    1
     8     9    10    2
     9    10    11    1
    10    11    12    2
    11    12    13    1
    12    13    14    2
    13    14    15    1
    14     1     2    1
    15     2     3    1
    16     3     4    1
    17     4     5    1
    18     5     1    1
    19    15     7    1
    20    14    10    1
    21     4     6    1
@<TRIPOS>MOLECULE
*****
 19 21 0 0 0
SMALL
GASTEIGER

@<TRIPOS>ATOM
      1 C         139.8402  144.2712  164.0674 C.3     1  UNL1        0.0313
      2 C         138.8274  144.8315  163.1134 C.3     1  UNL1        0.0222
      3 C         139.5179  145.8399  162.2438 C.3     1  UNL1        0.0689
      4 N         140.9575  145.9029  162.6604 N.3     1  UNL1       -0.2972
      5 C         141.1568  144.9334  163.7875 C.3     1  UNL1        0.0723
      6 H         141.1869  146.8470  162.9712 H       1  UNL1        0.1233
      7 C         140.6117  143.5406  165.1263 C.2     1  UNL1       -0.0390
      8 C         142.0056  143.0640  164.8444 C.2     1  UNL1       -0.0066
      9 C         142.7771  142.3333  165.9032 C.2     1  UNL1        0.0182
     10 C         142.1544  142.0794  167.2440 C.2     1  UNL1        0.0777
     11 N         142.6669  141.3915  168.4745 N.2     1  UNL1       -0.2442
     12 C         141.5896  141.4430  169.5170 C.2     1  UNL1        0.0985
     13 C         140.4113  142.1627  168.9307 C.2     1  UNL1        0.0182
     14 C         140.7604  142.5560  167.5260 C.2     1  UNL1        0.0011
     15 C         139.9890  143.2866  166.4671 C.3     1  UNL1        0.0499
     16 C         138.6851  143.4563  164.5688 C.3     1  UNL1        0.0051
     17 C         137.7884  142.7487  163.5965 C.3     1  UNL1        0.0004
     18 C         138.2385  140.4772  164.7746 C.3     1  UNL1        0.0000
     19 C         137.7064  141.2510  163.6049 C.3     1  UNL1        0.0000
@<TRIPOS>BOND
     1    18    19    1
     2    19    17    1
     3    17    16    1
     4    16     1    1
     5     1     7    1
     6     7     8    2
     7     8     9    1
     8     9    10    2
     9    10    11    1
    10    11    12    2
    11    12    13    1
    12    13    14    2
    13    14    15    1
    14     1     2    1
    15     2     3    1
    16     3     4    1
    17     4     5    1
    18     5     1    1
    19    15     7    1
    20    14    10    1
    21     4     6    1
@<TRIPOS>MOLECULE
*****
 19 21 0 0 0
SMALL
GASTEIGER

@<TRIPOS>ATOM
      1 C         141.5126  142.4233  168.0630 C.3     1  UNL1        0.0313
      2 C         142.7061  142.3903  168.9709 C.3     1  UNL1        0.0222
      3 C         142.3244  143.0505  170.2626 C.3     1  UNL1        0.0689
      4 N         140.8949  143.4917  170.1529 N.3     1  UNL1       -0.2972
      5 C         140.3932  143.1041  168.7935 C.3     1  UNL1        0.0723
      6 H         140.8350  144.5034  170.2685 H       1  UNL1        0.1233
      7 C         140.5092  142.3092  166.9538 C.2     1  UNL1       -0.0390
      8 C         139.9046  140.9768  166.6236 C.2     1  UNL1       -0.0066
      9 C         138.9012  140.8626  165.5145 C.2     1  UNL1        0.0182
     10 C         138.5024  142.0809  164.7356 C.2     1  UNL1        0.0777
     11 N         137.5456  142.2754  163.5968 N.2     1  UNL1       -0.2442
     12 C         137.5590  143.7281  163.2233 C.2     1  UNL1        0.0985
     13 C         138.5239  144.4314  164.1312 C.2     1  UNL1        0.0182
     14 C         139.1070  143.4133  165.0658 C.2     1  UNL1        0.0011
     15 C         140.1104  143.5275  166.1750 C.3     1  UNL1        0.0499
     16 C         142.4222  141.7188  167.1006 C.3     1  UNL1        0.0051
     17 C         143.5588  142.4610  166.4626 C.3     1  UNL1        0.0004
     18 C         143.2925  143.9236  164.3317 C.3     1  UNL1        0.0000
     19 C         143.6166  142.6057  164.9707 C.3     1  UNL1        0.0000
@<TRIPOS>BOND
     1    18    19    1
     2    19    17    1
     3    17    16    1
     4    16     1    1
     5     1     7    1
     6     7     8    2
     7     8     9    1
     8     9    10    2
     9    10    11    1
    10    11    12    2
    11    12    13    1
    12    13    14    2
    13    14    15    1
    14     1     2    1
    15     2     3    1
    16     3     4    1
    17     4     5    1
    18     5     1    1
    19    15     7    1
    20    14    10    1
    21     4     6    1
@<TRIPOS>MOLECULE
*****
 19 21 0 0 0
SMALL
GASTEIGER

@<TRIPOS>ATOM
      1 C         142.4761  140.9384  168.1803 C.3     1  UNL1        0.0313
      2 C         142.6174  139.8052  169.1529 C.3     1  UNL1        0.0222
      3 C         143.0358  140.3782  170.4745 C.3     1  UNL1        0.0689
      4 N         143.1531  141.8655  170.3187 N.3     1  UNL1       -0.2972
      5 C         142.8072  142.2117  168.9009 C.3     1  UNL1        0.0723
      6 H         144.1075  142.1608  170.5242 H       1  UNL1        0.1233
      7 C         142.2560  141.8451  167.0058 C.2     1  UNL1       -0.0390
      8 C         140.8611  142.1949  166.5794 C.2     1  UNL1       -0.0066
      9 C         140.6410  143.1016  165.4048 C.2     1  UNL1        0.0182
     10 C         141.8158  143.6584  164.6567 C.2     1  UNL1        0.0777
     11 N         141.9090  144.5701  163.4692 N.2     1  UNL1       -0.2442
     12 C         143.3615  144.7838  163.1618 C.2     1  UNL1        0.0985
     13 C         144.1661  144.0041  164.1592 C.2     1  UNL1        0.0182
     14 C         143.2108  143.3086  165.0832 C.2     1  UNL1        0.0011
     15 C         143.4308  142.4019  166.2577 C.3     1  UNL1        0.0499
     16 C         142.0990  139.8547  167.2142 C.3     1  UNL1        0.0051
     17 C         143.0775  138.7649  166.8903 C.3     1  UNL1        0.0004
     18 C         142.9786  139.2382  164.3376 C.3     1  UNL1        0.0000
     19 C         143.7127  138.7064  165.5327 C.3     1  UNL1        0.0000
@<TRIPOS>BOND
     1    18    19    1
     2    19    17    1
     3    17    16    1
     4    16     1    1
     5     1     7    1
     6     7     8    2
     7     8     9    1
     8     9    10    2
     9    10    11    1
    10    11    12    2
    11    12    13    1
    12    13    14    2
    13    14    15    1
    14     1     2    1
    15     2     3    1
    16     3     4    1
    17     4     5    1
    18     5     1    1
    19    15     7    1
    20    14    10    1
    21     4     6    1
@<TRIPOS>MOLECULE
*****
 19 21 0 0 0
SMALL
GASTEIGER

@<TRIPOS>ATOM
      1 C         140.6822  140.4564  168.5365 C.3     1  UNL1        0.0313
      2 C         139.4857  140.1775  169.3970 C.3     1  UNL1        0.0222
      3 C         139.9661  139.9521  170.8000 C.3     1  UNL1        0.0689
      4 N         141.4596  140.0917  170.8066 N.3     1  UNL1       -0.2972
      5 C         141.9022  140.4034  169.4077 C.3     1  UNL1        0.0723
      6 H         141.8873  139.2199  171.1189 H       1  UNL1        0.1233
      7 C         141.6669  140.7596  167.4463 C.2     1  UNL1       -0.0390
      8 C         141.9368  142.1819  167.0537 C.2     1  UNL1       -0.0066
      9 C         142.9214  142.4851  165.9634 C.2     1  UNL1        0.0182
     10 C         143.6362  141.3660  165.2659 C.2     1  UNL1        0.0777
     11 N         144.6527  141.3575  164.1629 N.2     1  UNL1       -0.2442
     12 C         145.0110  139.9299  163.8738 C.2     1  UNL1        0.0985
     13 C         144.2160  139.0561  164.7982 C.2     1  UNL1        0.0182
     14 C         143.3663  139.9436  165.6585 C.2     1  UNL1        0.0011
     15 C         142.3816  139.6405  166.7487 C.3     1  UNL1        0.0499
     16 C         139.6682  140.5728  167.4374 C.3     1  UNL1        0.0051
     17 C         138.7548  139.4221  167.1347 C.3     1  UNL1        0.0004
     18 C         138.8781  137.6719  165.2185 C.3     1  UNL1        0.0000
     19 C         138.4850  139.0330  165.7114 C.3     1  UNL1        0.0000
@<TRIPOS>BOND
     1    18    19    1
     2    19    17    1
     3    17    16    1
     4    16     1    1
     5     1     7    1
     6     7     8    2
     7     8     9    1
     8     9    10    2
     9    10    11    1
    10    11    12    2
    11    12    13    1
    12    13    14    2
    13    14    15    1
    14     1     2    1
    15     2     3    1
    16     3     4    1
    17     4     5    1
    18     5     1    1
    19    15     7    1
    20    14    10    1
    21     4     6    1
