@<TRIPOS>MOLECULE
*****
 35 37 0 0 0
SMALL
GASTEIGER

@<TRIPOS>ATOM
      1 C         138.6815  141.1674  164.9884 C.3     1  UNL1        0.0799
      2 C         138.3510  139.9002  165.7197 C.3     1  UNL1        0.0372
      3 C         138.9237  139.6500  167.0833 C.3     1  UNL1        0.0738
      4 N         139.8270  140.6671  167.7155 N.3     1  UNL1       -0.2738
      5 C         140.1576  141.9342  166.9842 C.3     1  UNL1        0.0738
      6 C         139.5848  142.1844  165.6206 C.3     1  UNL1        0.0372
      7 C         137.2735  139.4071  160.3067 C.3     1  UNL1        0.1122
      8 N         137.4048  140.5374  161.2839 N.am    1  UNL1       -0.2870
      9 C         137.9775  140.2873  162.6475 C.2     1  UNL1        0.3042
     10 O         138.4189  138.9067  163.0339 O.2     1  UNL1       -0.2526
     11 N         138.1088  141.4176  163.6248 N.am    1  UNL1       -0.2616
     12 H         137.1150  141.4435  161.0304 H       1  UNL1        0.1510
     13 C         137.6674  142.7981  163.2385 C.3     1  UNL1        0.1221
     14 C         138.6275  143.7305  162.5611 C.ar    1  UNL1        0.0047
     15 C         139.5825  143.3675  161.4627 C.ar    1  UNL1        0.0049
     16 C         140.3465  144.6022  161.0859 C.ar    1  UNL1        0.0352
     17 S         139.8636  145.7282  161.9514 S.2     1  UNL1       -0.0862
     18 C         138.8013  145.1895  162.8630 C.ar    1  UNL1        0.0328
     19 C         140.3998  140.4168  169.0792 C.3     1  UNL1        0.0592
     20 C         139.4863  140.2476  170.2568 C.3     1  UNL1        0.0174
     21 C         141.8860  140.3358  169.2650 C.3     1  UNL1        0.0372
     22 C         142.7038  139.4363  168.3865 C.3     1  UNL1        0.0911
     23 N         142.5227  139.4749  166.8979 N.am    1  UNL1       -0.3008
     24 C         143.3590  138.5941  166.0176 C.2     1  UNL1        0.2467
     25 O         144.3763  137.6748  166.6258 O.2     1  UNL1       -0.2701
     26 H         141.8551  140.0783  166.4987 H       1  UNL1        0.1497
     27 C         143.1780  138.6327  164.5291 C.ar    1  UNL1        0.0630
     28 C         142.0395  137.8920  163.8926 C.ar    1  UNL1       -0.0140
     29 C         141.0820  137.1127  164.7446 C.3     1  UNL1        0.0313
     30 C         141.8584  137.9306  162.4041 C.ar    1  UNL1        0.0267
     31 C         142.8158  138.7098  161.5520 C.ar    1  UNL1        0.1376
     32 CL        142.6347  138.7484  160.0635 Cl      1  UNL1       -0.0614
     33 N         143.9544  139.4506  162.1885 N.ar    1  UNL1       -0.2381
     34 C         144.1355  139.4120  163.6770 C.ar    1  UNL1        0.0643
     35 C         145.2740  140.1527  164.3135 C.3     1  UNL1        0.0523
@<TRIPOS>BOND
     1     7     8    1
     2     8     9   am
     3     9    10    2
     4     9    11   am
     5    11    13    1
     6    13    14    1
     7    14    15   ar
     8    15    16   ar
     9    16    17   ar
    10    17    18   ar
    11    11     1    1
    12     1     2    1
    13     2     3    1
    14     3     4    1
    15     4    19    1
    16    19    20    1
    17    19    21    1
    18    21    22    1
    19    22    23    1
    20    23    24   am
    21    24    25    2
    22    24    27    1
    23    27    28   ar
    24    28    29    1
    25    28    30   ar
    26    30    31   ar
    27    31    32    1
    28    31    33   ar
    29    33    34   ar
    30    34    35    1
    31     4     5    1
    32     5     6    1
    33    18    14   ar
    34     6     1    1
    35    34    27   ar
    36     8    12    1
    37    23    26    1
@<TRIPOS>MOLECULE
*****
 35 37 0 0 0
SMALL
GASTEIGER

@<TRIPOS>ATOM
      1 C         140.3740  142.3533  164.6977 C.3     1  UNL1        0.0799
      2 C         141.1787  142.9506  165.8138 C.3     1  UNL1        0.0372
      3 C         141.1533  142.3229  167.1759 C.3     1  UNL1        0.0738
      4 N         140.3232  141.0980  167.4219 N.3     1  UNL1       -0.2738
      5 C         139.5185  140.5008  166.3058 C.3     1  UNL1        0.0738
      6 C         139.5439  141.1284  164.9437 C.3     1  UNL1        0.0372
      7 C         139.4043  146.4036  161.5905 C.3     1  UNL1        0.1122
      8 N         139.9145  145.0061  161.7819 N.am    1  UNL1       -0.2870
      9 C         139.8891  144.3785  163.1440 C.2     1  UNL1        0.3042
     10 O         139.3535  145.1483  164.3148 O.2     1  UNL1       -0.2526
     11 N         140.3994  142.9809  163.3355 N.am    1  UNL1       -0.2616
     12 H         140.2660  144.5008  161.0136 H       1  UNL1        0.1510
     13 C         140.9349  142.2111  162.1649 C.3     1  UNL1        0.1221
     14 C         142.3739  142.3560  161.7669 C.ar    1  UNL1        0.0047
     15 C         143.5132  142.6884  162.6843 C.ar    1  UNL1        0.0049
     16 C         144.7697  142.7318  161.8660 C.ar    1  UNL1        0.0352
     17 S         144.4069  142.4264  160.4430 S.2     1  UNL1       -0.0862
     18 C         142.9262  142.1941  160.3817 C.ar    1  UNL1        0.0328
     19 C         140.2978  140.4704  168.7841 C.3     1  UNL1        0.0592
     20 C         139.0094  140.3872  169.5477 C.3     1  UNL1        0.0174
     21 C         141.5609  139.9259  169.3827 C.3     1  UNL1        0.0372
     22 C         142.5887  139.2776  168.5034 C.3     1  UNL1        0.0911
     23 N         142.4380  139.3262  167.0118 N.am    1  UNL1       -0.3008
     24 C         143.2551  138.4142  166.1453 C.2     1  UNL1        0.2467
     25 O         144.2227  137.4537  166.7704 O.2     1  UNL1       -0.2701
     26 H         141.8029  139.9567  166.6015 H       1  UNL1        0.1497
     27 C         143.1044  138.4629  164.6537 C.ar    1  UNL1        0.0630
     28 C         141.9102  137.8336  163.9996 C.ar    1  UNL1       -0.0140
     29 C         140.8667  137.1556  164.8371 C.3     1  UNL1        0.0313
     30 C         141.7595  137.8822  162.5080 C.ar    1  UNL1        0.0267
     31 C         142.8029  138.5602  161.6705 C.ar    1  UNL1        0.1376
     32 CL        142.6522  138.6089  160.1788 Cl      1  UNL1       -0.0614
     33 N         143.9972  139.1896  162.3245 N.ar    1  UNL1       -0.2381
     34 C         144.1479  139.1409  163.8162 C.ar    1  UNL1        0.0643
     35 C         145.3421  139.7702  164.4703 C.3     1  UNL1        0.0523
@<TRIPOS>BOND
     1     7     8    1
     2     8     9   am
     3     9    10    2
     4     9    11   am
     5    11    13    1
     6    13    14    1
     7    14    15   ar
     8    15    16   ar
     9    16    17   ar
    10    17    18   ar
    11    11     1    1
    12     1     2    1
    13     2     3    1
    14     3     4    1
    15     4    19    1
    16    19    20    1
    17    19    21    1
    18    21    22    1
    19    22    23    1
    20    23    24   am
    21    24    25    2
    22    24    27    1
    23    27    28   ar
    24    28    29    1
    25    28    30   ar
    26    30    31   ar
    27    31    32    1
    28    31    33   ar
    29    33    34   ar
    30    34    35    1
    31     4     5    1
    32     5     6    1
    33    18    14   ar
    34     6     1    1
    35    34    27   ar
    36     8    12    1
    37    23    26    1
@<TRIPOS>MOLECULE
*****
 35 37 0 0 0
SMALL
GASTEIGER

@<TRIPOS>ATOM
      1 C         139.2224  142.4433  164.9491 C.3     1  UNL1        0.0799
      2 C         139.9789  143.2660  165.9495 C.3     1  UNL1        0.0372
      3 C         140.3741  142.6679  167.2671 C.3     1  UNL1        0.0738
      4 N         140.0127  141.2471  167.5843 N.3     1  UNL1       -0.2738
      5 C         139.2561  140.4244  166.5840 C.3     1  UNL1        0.0738
      6 C         138.8610  141.0225  165.2664 C.3     1  UNL1        0.0372
      7 C         139.7710  146.1414  161.3404 C.3     1  UNL1        0.1122
      8 N         139.1015  144.8904  161.8271 N.am    1  UNL1       -0.2870
      9 C         139.4967  144.2923  163.1447 C.2     1  UNL1        0.3042
     10 O         140.5613  144.9452  163.9756 O.2     1  UNL1       -0.2526
     11 N         138.8272  143.0414  163.6315 N.am    1  UNL1       -0.2616
     12 H         138.4028  144.4620  161.2818 H       1  UNL1        0.1510
     13 C         137.7625  142.3886  162.8006 C.3     1  UNL1        0.1221
     14 C         138.1292  141.3114  161.8231 C.ar    1  UNL1        0.0047
     15 C         137.8470  139.8464  161.9788 C.ar    1  UNL1        0.0049
     16 C         138.3858  139.1397  160.7702 C.ar    1  UNL1        0.0352
     17 S         139.0008  140.1681  159.8678 S.2     1  UNL1       -0.0862
     18 C         138.8422  141.5102  160.5185 C.ar    1  UNL1        0.0328
     19 C         140.4079  140.6490  168.9020 C.3     1  UNL1        0.0592
     20 C         139.3547  140.2809  169.9046 C.3     1  UNL1        0.0174
     21 C         141.8563  140.4190  169.2170 C.3     1  UNL1        0.0372
     22 C         142.6786  139.5149  168.3473 C.3     1  UNL1        0.0911
     23 N         142.5159  139.5565  166.8567 N.am    1  UNL1       -0.3008
     24 C         143.3373  138.6513  165.9871 C.2     1  UNL1        0.2467
     25 O         144.3212  137.7046  166.6081 O.2     1  UNL1       -0.2701
     26 H         141.8701  140.1778  166.4491 H       1  UNL1        0.1497
     27 C         143.1746  138.6928  164.4965 C.ar    1  UNL1        0.0630
     28 C         144.1355  139.4834  163.6590 C.ar    1  UNL1       -0.0140
     29 C         145.2591  140.2325  164.3120 C.3     1  UNL1        0.0313
     30 C         143.9729  139.5250  162.1684 C.ar    1  UNL1        0.0267
     31 C         142.8493  138.7759  161.5154 C.ar    1  UNL1        0.1376
     32 CL        142.6866  138.8175  160.0248 Cl      1  UNL1       -0.0614
     33 N         141.8883  137.9853  162.3530 N.ar    1  UNL1       -0.2381
     34 C         142.0510  137.9437  163.8435 C.ar    1  UNL1        0.0643
     35 C         141.0901  137.1531  164.6811 C.3     1  UNL1        0.0523
@<TRIPOS>BOND
     1     7     8    1
     2     8     9   am
     3     9    10    2
     4     9    11   am
     5    11    13    1
     6    13    14    1
     7    14    15   ar
     8    15    16   ar
     9    16    17   ar
    10    17    18   ar
    11    11     1    1
    12     1     2    1
    13     2     3    1
    14     3     4    1
    15     4    19    1
    16    19    20    1
    17    19    21    1
    18    21    22    1
    19    22    23    1
    20    23    24   am
    21    24    25    2
    22    24    27    1
    23    27    28   ar
    24    28    29    1
    25    28    30   ar
    26    30    31   ar
    27    31    32    1
    28    31    33   ar
    29    33    34   ar
    30    34    35    1
    31     4     5    1
    32     5     6    1
    33    18    14   ar
    34     6     1    1
    35    34    27   ar
    36     8    12    1
    37    23    26    1
@<TRIPOS>MOLECULE
*****
 35 37 0 0 0
SMALL
GASTEIGER

@<TRIPOS>ATOM
      1 C         140.4713  139.3944  164.6259 C.3     1  UNL1        0.0799
      2 C         141.8993  138.9666  164.7925 C.3     1  UNL1        0.0372
      3 C         142.7766  138.7967  163.5878 C.3     1  UNL1        0.0738
      4 N         142.2259  139.0545  162.2165 N.3     1  UNL1       -0.2738
      5 C         140.7979  139.4823  162.0500 C.3     1  UNL1        0.0738
      6 C         139.9206  139.6523  163.2547 C.3     1  UNL1        0.0372
      7 C         136.7988  137.5622  167.8128 C.3     1  UNL1        0.1122
      8 N         137.7576  138.6482  167.4241 N.am    1  UNL1       -0.2870
      9 C         138.6350  138.4783  166.2194 C.2     1  UNL1        0.3042
     10 O         138.5536  137.2223  165.4033 O.2     1  UNL1       -0.2526
     11 N         139.5939  139.5644  165.8307 N.am    1  UNL1       -0.2616
     12 H         137.8111  139.4726  167.9596 H       1  UNL1        0.1510
     13 C         139.6753  140.8204  166.6467 C.3     1  UNL1        0.1221
     14 C         140.6789  140.9302  167.7562 C.ar    1  UNL1        0.0047
     15 C         141.0645  142.1892  168.4747 C.ar    1  UNL1        0.0049
     16 C         142.0969  141.8374  169.5046 C.ar    1  UNL1        0.0352
     17 S         142.3492  140.3610  169.4225 S.2     1  UNL1       -0.0862
     18 C         141.4728  139.8004  168.3419 C.ar    1  UNL1        0.0328
     19 C         143.1033  138.8846  161.0118 C.3     1  UNL1        0.0592
     20 C         142.9399  137.6834  160.1284 C.3     1  UNL1        0.0174
     21 C         144.1441  139.9158  160.6905 C.3     1  UNL1        0.0372
     22 C         143.7893  141.3730  160.7168 C.3     1  UNL1        0.0911
     23 N         142.6637  141.8553  161.5830 N.am    1  UNL1       -0.3008
     24 C         142.6942  143.2447  162.1477 C.2     1  UNL1        0.2467
     25 O         143.8502  144.1516  161.8462 O.2     1  UNL1       -0.2701
     26 H         141.9049  141.2601  161.7809 H       1  UNL1        0.1497
     27 C         141.5685  143.7270  163.0139 C.ar    1  UNL1        0.0630
     28 C         141.5386  143.3726  164.4711 C.ar    1  UNL1       -0.0140
     29 C         142.6342  142.5359  165.0621 C.3     1  UNL1        0.0313
     30 C         140.4129  143.8549  165.3373 C.ar    1  UNL1        0.0267
     31 C         139.3173  144.6917  164.7463 C.ar    1  UNL1        0.1376
     32 CL        138.1916  145.1740  165.6125 Cl      1  UNL1       -0.0614
     33 N         139.3472  145.0461  163.2891 N.ar    1  UNL1       -0.2381
     34 C         140.4728  144.5638  162.4228 C.ar    1  UNL1        0.0643
     35 C         140.5028  144.9182  160.9657 C.3     1  UNL1        0.0523
@<TRIPOS>BOND
     1     7     8    1
     2     8     9   am
     3     9    10    2
     4     9    11   am
     5    11    13    1
     6    13    14    1
     7    14    15   ar
     8    15    16   ar
     9    16    17   ar
    10    17    18   ar
    11    11     1    1
    12     1     2    1
    13     2     3    1
    14     3     4    1
    15     4    19    1
    16    19    20    1
    17    19    21    1
    18    21    22    1
    19    22    23    1
    20    23    24   am
    21    24    25    2
    22    24    27    1
    23    27    28   ar
    24    28    29    1
    25    28    30   ar
    26    30    31   ar
    27    31    32    1
    28    31    33   ar
    29    33    34   ar
    30    34    35    1
    31     4     5    1
    32     5     6    1
    33    18    14   ar
    34     6     1    1
    35    34    27   ar
    36     8    12    1
    37    23    26    1
@<TRIPOS>MOLECULE
*****
 35 37 0 0 0
SMALL
GASTEIGER

@<TRIPOS>ATOM
      1 C         142.4036  140.6999  160.4543 C.3     1  UNL1        0.0799
      2 C         140.9539  140.9029  160.7816 C.3     1  UNL1        0.0372
      3 C         140.4529  142.2670  161.1536 C.3     1  UNL1        0.0738
      4 N         141.4017  143.4280  161.1982 N.3     1  UNL1       -0.2738
      5 C         142.8513  143.2249  160.8708 C.3     1  UNL1        0.0738
      6 C         143.3523  141.8609  160.4989 C.3     1  UNL1        0.0372
      7 C         142.7673  136.8234  157.0133 C.3     1  UNL1        0.1122
      8 N         143.0864  137.3976  158.3618 N.am    1  UNL1       -0.2870
      9 C         142.5855  138.7616  158.7338 C.2     1  UNL1        0.3042
     10 O         141.7653  139.5515  157.7573 O.2     1  UNL1       -0.2526
     11 N         142.9046  139.3358  160.0823 N.am    1  UNL1       -0.2616
     12 H         143.6247  136.8792  159.0027 H       1  UNL1        0.1510
     13 C         143.7247  138.5460  161.0588 C.3     1  UNL1        0.1221
     14 C         143.4124  138.6095  162.5246 C.ar    1  UNL1        0.0047
     15 C         144.2557  139.2645  163.5780 C.ar    1  UNL1        0.0049
     16 C         143.5665  139.0891  164.8988 C.ar    1  UNL1        0.0352
     17 S         142.2972  138.3257  164.6615 S.2     1  UNL1       -0.0862
     18 C         142.2020  138.0293  163.1942 C.ar    1  UNL1        0.0328
     19 C         140.9007  144.7921  161.5702 C.3     1  UNL1        0.0592
     20 C         140.2288  145.6509  160.5402 C.3     1  UNL1        0.0174
     21 C         141.0715  145.2972  162.9722 C.3     1  UNL1        0.0372
     22 C         141.7888  144.4596  163.9890 C.3     1  UNL1        0.0911
     23 N         141.2274  143.1294  164.3955 N.am    1  UNL1       -0.3008
     24 C         139.9522  143.0623  165.1825 C.2     1  UNL1        0.2467
     25 O         139.2384  144.3255  165.5630 O.2     1  UNL1       -0.2701
     26 H         141.6960  142.3003  164.1458 H       1  UNL1        0.1497
     27 C         139.3909  141.7320  165.5891 C.ar    1  UNL1        0.0630
     28 C         139.9072  141.0440  166.8179 C.ar    1  UNL1       -0.0140
     29 C         140.9847  141.6863  167.6402 C.3     1  UNL1        0.0313
     30 C         139.3458  139.7138  167.2245 C.ar    1  UNL1        0.0267
     31 C         138.2682  139.0715  166.4022 C.ar    1  UNL1        0.1376
     32 CL        137.7069  137.7412  166.8088 Cl      1  UNL1       -0.0614
     33 N         137.7519  139.7594  165.1733 N.ar    1  UNL1       -0.2381
     34 C         138.3132  141.0897  164.7667 C.ar    1  UNL1        0.0643
     35 C         137.7970  141.7777  163.5379 C.3     1  UNL1        0.0523
@<TRIPOS>BOND
     1     7     8    1
     2     8     9   am
     3     9    10    2
     4     9    11   am
     5    11    13    1
     6    13    14    1
     7    14    15   ar
     8    15    16   ar
     9    16    17   ar
    10    17    18   ar
    11    11     1    1
    12     1     2    1
    13     2     3    1
    14     3     4    1
    15     4    19    1
    16    19    20    1
    17    19    21    1
    18    21    22    1
    19    22    23    1
    20    23    24   am
    21    24    25    2
    22    24    27    1
    23    27    28   ar
    24    28    29    1
    25    28    30   ar
    26    30    31   ar
    27    31    32    1
    28    31    33   ar
    29    33    34   ar
    30    34    35    1
    31     4     5    1
    32     5     6    1
    33    18    14   ar
    34     6     1    1
    35    34    27   ar
    36     8    12    1
    37    23    26    1
@<TRIPOS>MOLECULE
*****
 35 37 0 0 0
SMALL
GASTEIGER

@<TRIPOS>ATOM
      1 C         141.1402  142.9097  161.0229 C.3     1  UNL1        0.0799
      2 C         142.3524  142.8198  161.9019 C.3     1  UNL1        0.0372
      3 C         142.8346  141.4822  162.3797 C.3     1  UNL1        0.0738
      4 N         142.1048  140.2347  161.9785 N.3     1  UNL1       -0.2738
      5 C         140.8927  140.3246  161.0995 C.3     1  UNL1        0.0738
      6 C         140.4104  141.6622  160.6217 C.3     1  UNL1        0.0372
      7 C         140.2055  146.2313  157.1378 C.3     1  UNL1        0.1122
      8 N         140.1906  145.9081  158.6025 N.am    1  UNL1       -0.2870
      9 C         140.6729  144.5705  159.0804 C.2     1  UNL1        0.3042
     10 O         141.1702  143.5561  158.0935 O.2     1  UNL1       -0.2526
     11 N         140.6579  144.2473  160.5451 N.am    1  UNL1       -0.2616
     12 H         139.8642  146.5738  159.2502 H       1  UNL1        0.1510
     13 C         140.1606  145.2616  161.5319 C.3     1  UNL1        0.1221
     14 C         139.4804  144.8123  162.7910 C.ar    1  UNL1        0.0047
     15 C         138.1034  144.2253  162.8879 C.ar    1  UNL1        0.0049
     16 C         137.8296  143.9213  164.3311 C.ar    1  UNL1        0.0352
     17 S         139.0375  144.3203  165.1260 S.2     1  UNL1       -0.0862
     18 C         140.0577  144.8709  164.1742 C.ar    1  UNL1        0.0328
     19 C         142.5871  138.8971  162.4563 C.3     1  UNL1        0.0592
     20 C         143.9435  138.7693  163.0838 C.3     1  UNL1        0.0174
     21 C         141.7130  137.6873  162.3067 C.3     1  UNL1        0.0372
     22 C         140.5331  137.4978  163.2132 C.3     1  UNL1        0.0911
     23 N         140.6217  137.9040  164.6545 N.am    1  UNL1       -0.3008
     24 C         140.0369  139.2105  165.1028 C.2     1  UNL1        0.2467
     25 O         139.3635  140.1109  164.1099 O.2     1  UNL1       -0.2701
     26 H         141.0637  137.3130  165.3062 H       1  UNL1        0.1497
     27 C         140.1256  139.6167  166.5440 C.ar    1  UNL1        0.0630
     28 C         141.3661  140.2832  167.0605 C.ar    1  UNL1       -0.0140
     29 C         142.5180  140.5436  166.1357 C.3     1  UNL1        0.0313
     30 C         141.4547  140.6894  168.5017 C.ar    1  UNL1        0.0267
     31 C         140.3028  140.4290  169.4265 C.ar    1  UNL1        0.1376
     32 CL        140.3915  140.8352  170.8678 Cl      1  UNL1       -0.0614
     33 N         139.0622  139.7625  168.9101 N.ar    1  UNL1       -0.2381
     34 C         138.9736  139.3563  167.4688 C.ar    1  UNL1        0.0643
     35 C         137.7330  138.6898  166.9524 C.3     1  UNL1        0.0523
@<TRIPOS>BOND
     1     7     8    1
     2     8     9   am
     3     9    10    2
     4     9    11   am
     5    11    13    1
     6    13    14    1
     7    14    15   ar
     8    15    16   ar
     9    16    17   ar
    10    17    18   ar
    11    11     1    1
    12     1     2    1
    13     2     3    1
    14     3     4    1
    15     4    19    1
    16    19    20    1
    17    19    21    1
    18    21    22    1
    19    22    23    1
    20    23    24   am
    21    24    25    2
    22    24    27    1
    23    27    28   ar
    24    28    29    1
    25    28    30   ar
    26    30    31   ar
    27    31    32    1
    28    31    33   ar
    29    33    34   ar
    30    34    35    1
    31     4     5    1
    32     5     6    1
    33    18    14   ar
    34     6     1    1
    35    34    27   ar
    36     8    12    1
    37    23    26    1
@<TRIPOS>MOLECULE
*****
 35 37 0 0 0
SMALL
GASTEIGER

@<TRIPOS>ATOM
      1 C         141.9548  143.2181  164.1244 C.3     1  UNL1        0.0799
      2 C         142.9356  142.6578  165.1114 C.3     1  UNL1        0.0372
      3 C         142.4967  142.3490  166.5120 C.3     1  UNL1        0.0738
      4 N         141.0770  142.6003  166.9257 N.3     1  UNL1       -0.2738
      5 C         140.0962  143.1605  165.9388 C.3     1  UNL1        0.0738
      6 C         140.5351  143.4694  164.5381 C.3     1  UNL1        0.0372
      7 C         141.1300  145.5722  159.5661 C.3     1  UNL1        0.1122
      8 N         141.9813  144.7040  160.4446 N.am    1  UNL1       -0.2870
      9 C         141.5424  144.3951  161.8453 C.2     1  UNL1        0.3042
     10 O         140.2522  144.9543  162.3676 O.2     1  UNL1       -0.2526
     11 N         142.3937  143.5270  162.7237 N.am    1  UNL1       -0.2616
     12 H         142.8281  144.3370  160.1018 H       1  UNL1        0.1510
     13 C         143.6839  142.9678  162.2015 C.3     1  UNL1        0.1221
     14 C         143.6987  141.6379  161.5077 C.ar    1  UNL1        0.0047
     15 C         143.7196  140.2951  162.1760 C.ar    1  UNL1        0.0049
     16 C         143.7290  139.2446  161.1052 C.ar    1  UNL1        0.0352
     17 S         143.7138  139.9382  159.7752 S.2     1  UNL1       -0.0862
     18 C         143.6950  141.4173  160.0240 C.ar    1  UNL1        0.0328
     19 C         140.6381  142.2914  168.3265 C.3     1  UNL1        0.0592
     20 C         140.3851  143.4072  169.2965 C.3     1  UNL1        0.0174
     21 C         140.4521  140.8666  168.7572 C.3     1  UNL1        0.0372
     22 C         139.6522  139.9245  167.9072 C.3     1  UNL1        0.0911
     23 N         139.9394  139.8109  166.4393 N.am    1  UNL1       -0.3008
     24 C         139.0937  138.9220  165.5762 C.2     1  UNL1        0.2467
     25 O         137.9609  138.1468  166.1810 O.2     1  UNL1       -0.2701
     26 H         140.6829  140.3197  166.0423 H       1  UNL1        0.1497
     27 C         139.3808  138.8084  164.1084 C.ar    1  UNL1        0.0630
     28 C         138.7149  139.7400  163.1396 C.ar    1  UNL1       -0.0140
     29 C         137.7618  140.7852  163.6387 C.3     1  UNL1        0.0313
     30 C         139.0020  139.6264  161.6717 C.ar    1  UNL1        0.0267
     31 C         139.9551  138.5812  161.1726 C.ar    1  UNL1        0.1376
     32 CL        140.2423  138.4676  159.7048 Cl      1  UNL1       -0.0614
     33 N         140.6212  137.6496  162.1414 N.ar    1  UNL1       -0.2381
     34 C         140.3340  137.7632  163.6093 C.ar    1  UNL1        0.0643
     35 C         141.0000  136.8316  164.5781 C.3     1  UNL1        0.0523
@<TRIPOS>BOND
     1     7     8    1
     2     8     9   am
     3     9    10    2
     4     9    11   am
     5    11    13    1
     6    13    14    1
     7    14    15   ar
     8    15    16   ar
     9    16    17   ar
    10    17    18   ar
    11    11     1    1
    12     1     2    1
    13     2     3    1
    14     3     4    1
    15     4    19    1
    16    19    20    1
    17    19    21    1
    18    21    22    1
    19    22    23    1
    20    23    24   am
    21    24    25    2
    22    24    27    1
    23    27    28   ar
    24    28    29    1
    25    28    30   ar
    26    30    31   ar
    27    31    32    1
    28    31    33   ar
    29    33    34   ar
    30    34    35    1
    31     4     5    1
    32     5     6    1
    33    18    14   ar
    34     6     1    1
    35    34    27   ar
    36     8    12    1
    37    23    26    1
@<TRIPOS>MOLECULE
*****
 35 37 0 0 0
SMALL
GASTEIGER

@<TRIPOS>ATOM
      1 C         141.9616  143.5880  160.9984 C.3     1  UNL1        0.0799
      2 C         142.8912  144.0617  162.0761 C.3     1  UNL1        0.0372
      3 C         143.7399  143.0748  162.8216 C.3     1  UNL1        0.0738
      4 N         143.6589  141.6143  162.4894 N.3     1  UNL1       -0.2738
      5 C         142.7293  141.1406  161.4117 C.3     1  UNL1        0.0738
      6 C         141.8806  142.1275  160.6662 C.3     1  UNL1        0.0372
      7 C         140.8987  146.2307  156.6525 C.3     1  UNL1        0.1122
      8 N         140.5814  145.8962  158.0800 N.am    1  UNL1       -0.2870
      9 C         141.4301  144.9094  158.8255 C.2     1  UNL1        0.3042
     10 O         142.5960  144.2569  158.1436 O.2     1  UNL1       -0.2526
     11 N         141.1128  144.5749  160.2529 N.am    1  UNL1       -0.2616
     12 H         139.8162  146.3244  158.5275 H       1  UNL1        0.1510
     13 C         139.9469  145.2273  160.9348 C.3     1  UNL1        0.1221
     14 C         139.2882  144.5542  162.1023 C.ar    1  UNL1        0.0047
     15 C         139.4546  144.9294  163.5451 C.ar    1  UNL1        0.0049
     16 C         138.6167  143.9949  164.3666 C.ar    1  UNL1        0.0352
     17 S         137.9324  143.0423  163.4314 S.2     1  UNL1       -0.0862
     18 C         138.3475  143.3880  162.0320 C.ar    1  UNL1        0.0328
     19 C         144.5076  140.6274  163.2349 C.3     1  UNL1        0.0592
     20 C         145.7167  141.0965  163.9886 C.3     1  UNL1        0.0174
     21 C         144.1472  139.1713  163.2268 C.3     1  UNL1        0.0372
     22 C         142.9184  138.6988  163.9455 C.3     1  UNL1        0.0911
     23 N         142.5775  139.2575  165.2952 N.am    1  UNL1       -0.3008
     24 C         141.5236  140.3172  165.4239 C.2     1  UNL1        0.2467
     25 O         140.8108  140.8182  164.2029 O.2     1  UNL1       -0.2701
     26 H         143.0453  138.9287  166.0966 H       1  UNL1        0.1497
     27 C         141.1827  140.8759  166.7736 C.ar    1  UNL1        0.0630
     28 C         139.9787  140.3710  167.5120 C.ar    1  UNL1       -0.0140
     29 C         139.1155  139.3074  166.9007 C.3     1  UNL1        0.0313
     30 C         139.6378  140.9297  168.8617 C.ar    1  UNL1        0.0267
     31 C         140.5009  141.9932  169.4730 C.ar    1  UNL1        0.1376
     32 CL        140.1600  142.5519  170.8227 Cl      1  UNL1       -0.0614
     33 N         141.7051  142.4982  168.7346 N.ar    1  UNL1       -0.2381
     34 C         142.0460  141.9395  167.3849 C.ar    1  UNL1        0.0643
     35 C         143.2500  142.4444  166.6465 C.3     1  UNL1        0.0523
@<TRIPOS>BOND
     1     7     8    1
     2     8     9   am
     3     9    10    2
     4     9    11   am
     5    11    13    1
     6    13    14    1
     7    14    15   ar
     8    15    16   ar
     9    16    17   ar
    10    17    18   ar
    11    11     1    1
    12     1     2    1
    13     2     3    1
    14     3     4    1
    15     4    19    1
    16    19    20    1
    17    19    21    1
    18    21    22    1
    19    22    23    1
    20    23    24   am
    21    24    25    2
    22    24    27    1
    23    27    28   ar
    24    28    29    1
    25    28    30   ar
    26    30    31   ar
    27    31    32    1
    28    31    33   ar
    29    33    34   ar
    30    34    35    1
    31     4     5    1
    32     5     6    1
    33    18    14   ar
    34     6     1    1
    35    34    27   ar
    36     8    12    1
    37    23    26    1
@<TRIPOS>MOLECULE
*****
 35 37 0 0 0
SMALL
GASTEIGER

@<TRIPOS>ATOM
      1 C         140.0989  139.8365  165.6867 C.3     1  UNL1        0.0799
      2 C         139.2127  140.9062  165.1207 C.3     1  UNL1        0.0372
      3 C         138.4633  140.6617  163.8446 C.3     1  UNL1        0.0738
      4 N         138.6000  139.3476  163.1345 N.3     1  UNL1       -0.2738
      5 C         139.4861  138.2779  163.7005 C.3     1  UNL1        0.0738
      6 C         140.2356  138.5223  164.9766 C.3     1  UNL1        0.0372
      7 C         140.2038  140.0248  170.8784 C.3     1  UNL1        0.1122
      8 N         140.9008  140.1751  169.5587 N.am    1  UNL1       -0.2870
      9 C         140.1514  139.9307  168.2826 C.2     1  UNL1        0.3042
     10 O         138.7048  139.5360  168.3261 O.2     1  UNL1       -0.2526
     11 N         140.8484  140.0809  166.9629 N.am    1  UNL1       -0.2616
     12 H         141.8502  140.4341  169.5301 H       1  UNL1        0.1510
     13 C         142.2949  140.4756  166.9193 C.3     1  UNL1        0.1221
     14 C         143.0607  140.3775  165.6332 C.ar    1  UNL1        0.0047
     15 C         143.8615  139.1960  165.1719 C.ar    1  UNL1        0.0049
     16 C         144.4559  139.5320  163.8362 C.ar    1  UNL1        0.0352
     17 S         144.0224  140.9211  163.4721 S.2     1  UNL1       -0.0862
     18 C         143.1601  141.4437  164.5827 C.ar    1  UNL1        0.0328
     19 C         137.8504  139.1031  161.8583 C.3     1  UNL1        0.0592
     20 C         137.3231  137.7334  161.5488 C.3     1  UNL1        0.0174
     21 C         137.6283  140.2284  160.8917 C.3     1  UNL1        0.0372
     22 C         138.8006  140.8978  160.2377 C.3     1  UNL1        0.0911
     23 N         139.8476  141.5663  161.0784 N.am    1  UNL1       -0.3008
     24 C         140.0050  143.0575  161.0346 C.2     1  UNL1        0.2467
     25 O         139.1155  143.8799  160.1502 O.2     1  UNL1       -0.2701
     26 H         140.4314  141.0265  161.6589 H       1  UNL1        0.1497
     27 C         141.0520  143.7261  161.8754 C.ar    1  UNL1        0.0630
     28 C         140.6742  144.3552  163.1835 C.ar    1  UNL1       -0.0140
     29 C         139.2495  144.3158  163.6510 C.3     1  UNL1        0.0313
     30 C         141.7212  145.0238  164.0243 C.ar    1  UNL1        0.0267
     31 C         143.1459  145.0632  163.5568 C.ar    1  UNL1        0.1376
     32 CL        144.1929  145.7318  164.3975 Cl      1  UNL1       -0.0614
     33 N         143.5238  144.4340  162.2486 N.ar    1  UNL1       -0.2381
     34 C         142.4768  143.7654  161.4078 C.ar    1  UNL1        0.0643
     35 C         142.8545  143.1362  160.0997 C.3     1  UNL1        0.0523
@<TRIPOS>BOND
     1     7     8    1
     2     8     9   am
     3     9    10    2
     4     9    11   am
     5    11    13    1
     6    13    14    1
     7    14    15   ar
     8    15    16   ar
     9    16    17   ar
    10    17    18   ar
    11    11     1    1
    12     1     2    1
    13     2     3    1
    14     3     4    1
    15     4    19    1
    16    19    20    1
    17    19    21    1
    18    21    22    1
    19    22    23    1
    20    23    24   am
    21    24    25    2
    22    24    27    1
    23    27    28   ar
    24    28    29    1
    25    28    30   ar
    26    30    31   ar
    27    31    32    1
    28    31    33   ar
    29    33    34   ar
    30    34    35    1
    31     4     5    1
    32     5     6    1
    33    18    14   ar
    34     6     1    1
    35    34    27   ar
    36     8    12    1
    37    23    26    1
