@<TRIPOS>MOLECULE
*****
 40 43 0 0 0
SMALL
GASTEIGER

@<TRIPOS>ATOM
      1 C         139.7578  141.3719  162.3084 C.3     1  UNL1        0.1159
      2 O         138.5485  140.5373  162.6099 O.3     1  UNL1       -0.3820
      3 H         137.7840  140.8899  162.1282 H       1  UNL1        0.2107
      4 C         142.8224  143.8463  162.7938 C.ar    1  UNL1        0.1070
      5 C         141.6131  143.0116  163.0953 C.ar    1  UNL1        0.0235
      6 C         140.9671  142.2066  162.0069 C.ar    1  UNL1        0.0064
      7 C         141.5305  142.2362  160.6171 C.ar    1  UNL1        0.0235
      8 C         142.7398  143.0708  160.3156 C.ar    1  UNL1        0.1070
      9 N         143.3858  143.8759  161.4040 N.ar    1  UNL1       -0.2330
     10 S         143.4684  144.6514  163.8822 S.3     1  UNL1       -0.0950
     11 C         143.9292  142.9433  165.7849 C.3     1  UNL1        0.0130
     12 C         144.4223  143.9946  164.8355 C.3     1  UNL1        0.0637
     13 S         143.3032  143.1004  158.9257 S.3     1  UNL1       -0.0950
     14 C         142.6074  143.8818  157.8509 C.3     1  UNL1        0.0637
     15 C         141.8591  145.1343  158.1992 C.3     1  UNL1        0.0130
     16 C         138.9314  142.2454  161.4117 C.3     1  UNL1        0.0491
     17 C         137.8739  143.1337  161.9969 C.3     1  UNL1        0.0750
     18 N         138.2498  144.1940  162.9891 N.3     1  UNL1       -0.2702
     19 C         137.8613  144.0443  164.4301 C.3     1  UNL1        0.0897
     20 C         139.0143  145.4040  162.5403 C.3     1  UNL1        0.0897
     21 C         140.5842  140.4985  163.2051 C.3     1  UNL1        0.0776
     22 C         140.3064  140.4605  164.6788 C.ar    1  UNL1        0.0373
     23 C         140.5574  141.6761  165.5209 C.ar    1  UNL1        0.0023
     24 C         140.2796  141.6381  166.9945 C.ar    1  UNL1        0.0181
     25 C         140.5306  142.8537  167.8366 C.ar    1  UNL1        0.0082
     26 C         140.2528  142.8156  169.3102 C.ar    1  UNL1        0.0347
     27 BR        140.5038  144.0313  170.1524 Br      1  UNL1       -0.0490
     28 C         139.7239  141.5620  169.9415 C.ar    1  UNL1        0.0082
     29 C         139.4728  140.3464  169.0994 C.ar    1  UNL1        0.0197
     30 C         139.7507  140.3844  167.6259 C.ar    1  UNL1        0.0844
     31 N         139.4996  139.1688  166.7837 N.ar    1  UNL1       -0.2119
     32 C         139.7775  139.2068  165.3101 C.ar    1  UNL1        0.2211
     33 O         139.5264  137.9912  164.4679 O.3     1  UNL1       -0.4563
     34 C         140.5213  136.8687  164.4558 C.3     1  UNL1        0.2542
     35 C         141.6884  139.6630  162.6283 C.ar    1  UNL1       -0.0157
     36 C         143.0618  139.7170  163.2290 C.ar    1  UNL1       -0.0039
     37 C         144.1661  138.8816  162.6522 C.ar    1  UNL1       -0.0003
     38 C         143.8969  137.9921  161.4747 C.ar    1  UNL1       -0.0000
     39 C         142.5234  137.9382  160.8741 C.ar    1  UNL1       -0.0003
     40 C         141.4192  138.7736  161.4509 C.ar    1  UNL1       -0.0039
@<TRIPOS>BOND
     1    11    12    1
     2    12    10    1
     3    10     4    1
     4     4     5   ar
     5     5     6   ar
     6     6     1    1
     7     1     2    1
     8     1    16    1
     9    16    17    1
    10    17    18    1
    11    18    19    1
    12    18    20    1
    13     1    21    1
    14    21    35    1
    15    35    36   ar
    16    36    37   ar
    17    37    38   ar
    18    38    39   ar
    19    39    40   ar
    20    21    22    1
    21    22    23   ar
    22    23    24   ar
    23    24    25   ar
    24    25    26   ar
    25    26    27    1
    26    26    28   ar
    27    28    29   ar
    28    29    30   ar
    29    30    31   ar
    30    31    32   ar
    31    32    33    1
    32    33    34    1
    33     6     7   ar
    34     7     8   ar
    35     8    13    1
    36    13    14    1
    37    14    15    1
    38     8     9   ar
    39     9     4   ar
    40    40    35   ar
    41    32    22   ar
    42    30    24   ar
    43     2     3    1
@<TRIPOS>MOLECULE
*****
 40 43 0 0 0
SMALL
GASTEIGER

@<TRIPOS>ATOM
      1 C         139.7041  141.4156  162.2807 C.3     1  UNL1        0.1159
      2 O         138.4960  140.5964  162.6262 O.3     1  UNL1       -0.3820
      3 H         137.7153  140.9714  162.1895 H       1  UNL1        0.2107
      4 C         142.5662  143.1678  160.1621 C.ar    1  UNL1        0.1070
      5 C         141.3581  142.3485  160.5076 C.ar    1  UNL1        0.0235
      6 C         140.9122  142.2349  161.9353 C.ar    1  UNL1        0.0064
      7 C         141.6743  142.9406  163.0174 C.ar    1  UNL1        0.0235
      8 C         142.8824  143.7598  162.6719 C.ar    1  UNL1        0.1070
      9 N         143.3283  143.8734  161.2443 N.ar    1  UNL1       -0.2330
     10 S         143.0121  143.2814  158.7344 S.3     1  UNL1       -0.0950
     11 C         144.0472  140.9022  158.8684 C.3     1  UNL1        0.0130
     12 C         143.7587  142.1513  158.0897 C.3     1  UNL1        0.0637
     13 S         143.6446  144.4655  163.7542 S.3     1  UNL1       -0.0950
     14 C         144.3362  143.6729  164.8235 C.3     1  UNL1        0.0637
     15 C         145.0564  142.4054  164.4703 C.3     1  UNL1        0.0130
     16 C         138.8507  142.3205  161.4423 C.3     1  UNL1        0.0491
     17 C         137.8404  143.2163  162.0955 C.3     1  UNL1        0.0750
     18 N         138.2890  144.2777  163.0559 N.3     1  UNL1       -0.2702
     19 C         137.9579  144.1583  164.5140 C.3     1  UNL1        0.0897
     20 C         139.0687  145.4585  162.5582 C.3     1  UNL1        0.0897
     21 C         140.5575  140.5108  163.1192 C.3     1  UNL1        0.0776
     22 C         140.3490  140.4461  164.6033 C.ar    1  UNL1        0.0373
     23 C         140.5172  141.6805  165.4388 C.ar    1  UNL1        0.0023
     24 C         140.3088  141.6158  166.9229 C.ar    1  UNL1        0.0181
     25 C         140.4769  142.8501  167.7584 C.ar    1  UNL1        0.0082
     26 C         140.2685  142.7854  169.2424 C.ar    1  UNL1        0.0347
     27 BR        140.4366  144.0197  170.0779 Br      1  UNL1       -0.0490
     28 C         139.8919  141.4863  169.8909 C.ar    1  UNL1        0.0082
     29 C         139.7237  140.2519  169.0554 C.ar    1  UNL1        0.0197
     30 C         139.9321  140.3167  167.5714 C.ar    1  UNL1        0.0844
     31 N         139.7640  139.0823  166.7358 N.ar    1  UNL1       -0.2119
     32 C         139.9724  139.1471  165.2518 C.ar    1  UNL1        0.2211
     33 O         139.8043  137.9127  164.4162 O.3     1  UNL1       -0.4563
     34 C         140.8854  136.8733  164.3878 C.3     1  UNL1        0.2542
     35 C         141.6193  139.6707  162.4737 C.ar    1  UNL1       -0.0157
     36 C         143.0104  139.6590  163.0345 C.ar    1  UNL1       -0.0039
     37 C         144.0723  138.8188  162.3890 C.ar    1  UNL1       -0.0003
     38 C         143.7430  137.9905  161.1826 C.ar    1  UNL1       -0.0000
     39 C         142.3518  138.0023  160.6217 C.ar    1  UNL1       -0.0003
     40 C         141.2900  138.8424  161.2672 C.ar    1  UNL1       -0.0039
@<TRIPOS>BOND
     1    11    12    1
     2    12    10    1
     3    10     4    1
     4     4     5   ar
     5     5     6   ar
     6     6     1    1
     7     1     2    1
     8     1    16    1
     9    16    17    1
    10    17    18    1
    11    18    19    1
    12    18    20    1
    13     1    21    1
    14    21    35    1
    15    35    36   ar
    16    36    37   ar
    17    37    38   ar
    18    38    39   ar
    19    39    40   ar
    20    21    22    1
    21    22    23   ar
    22    23    24   ar
    23    24    25   ar
    24    25    26   ar
    25    26    27    1
    26    26    28   ar
    27    28    29   ar
    28    29    30   ar
    29    30    31   ar
    30    31    32   ar
    31    32    33    1
    32    33    34    1
    33     6     7   ar
    34     7     8   ar
    35     8    13    1
    36    13    14    1
    37    14    15    1
    38     8     9   ar
    39     9     4   ar
    40    40    35   ar
    41    32    22   ar
    42    30    24   ar
    43     2     3    1
@<TRIPOS>MOLECULE
*****
 40 43 0 0 0
SMALL
GASTEIGER

@<TRIPOS>ATOM
      1 C         142.4932  141.2796  162.2765 C.3     1  UNL1        0.1159
      2 O         143.4838  140.2953  162.8242 O.3     1  UNL1       -0.3820
      3 H         144.3675  140.5010  162.4810 H       1  UNL1        0.2107
      4 C         139.7851  144.1758  162.1089 C.ar    1  UNL1        0.1070
      5 C         140.7757  143.1915  162.6566 C.ar    1  UNL1        0.0235
      6 C         141.5026  142.2638  161.7288 C.ar    1  UNL1        0.0064
      7 C         141.2390  142.3204  160.2533 C.ar    1  UNL1        0.0235
      8 C         140.2484  143.3047  159.7056 C.ar    1  UNL1        0.1070
      9 N         139.5215  144.2324  160.6334 N.ar    1  UNL1       -0.2330
     10 S         139.0581  145.1035  163.0368 S.3     1  UNL1       -0.0950
     11 C         137.8007  143.5206  164.6689 C.3     1  UNL1        0.0130
     12 C         138.7397  144.6670  164.4362 C.3     1  UNL1        0.0637
     13 S         139.9848  143.3613  158.2299 S.3     1  UNL1       -0.0950
     14 C         138.9973  142.4190  157.6078 C.3     1  UNL1        0.0637
     15 C         138.2187  141.4711  158.4711 C.3     1  UNL1        0.0130
     16 C         143.5924  141.9649  161.5200 C.3     1  UNL1        0.0491
     17 C         144.7022  142.6471  162.2635 C.3     1  UNL1        0.0750
     18 N         144.3920  143.4967  163.4601 N.3     1  UNL1       -0.2702
     19 C         143.8819  144.8950  163.2752 C.3     1  UNL1        0.0897
     20 C         144.5921  142.9480  164.8417 C.3     1  UNL1        0.0897
     21 C         141.3940  140.5943  163.0329 C.3     1  UNL1        0.0776
     22 C         141.4408  140.5313  164.5309 C.ar    1  UNL1        0.0373
     23 C         141.0391  141.7256  165.3447 C.ar    1  UNL1        0.0023
     24 C         141.0859  141.6626  166.8427 C.ar    1  UNL1        0.0181
     25 C         140.6842  142.8568  167.6565 C.ar    1  UNL1        0.0082
     26 C         140.7310  142.7938  169.1544 C.ar    1  UNL1        0.0347
     27 BR        140.3293  143.9881  169.9683 Br      1  UNL1       -0.0490
     28 C         141.1794  141.5364  169.8386 C.ar    1  UNL1        0.0082
     29 C         141.5810  140.3421  169.0248 C.ar    1  UNL1        0.0197
     30 C         141.5342  140.4052  167.5269 C.ar    1  UNL1        0.0844
     31 N         141.9359  139.2109  166.7130 N.ar    1  UNL1       -0.2119
     32 C         141.8891  139.2739  165.2151 C.ar    1  UNL1        0.2211
     33 O         142.2908  138.0796  164.4012 O.3     1  UNL1       -0.4563
     34 C         141.3152  136.9625  164.1768 C.3     1  UNL1        0.2542
     35 C         140.2482  139.9721  162.2915 C.ar    1  UNL1       -0.0157
     36 C         138.8373  140.3237  162.6597 C.ar    1  UNL1       -0.0039
     37 C         137.6913  139.7014  161.9182 C.ar    1  UNL1       -0.0003
     38 C         137.9564  138.7276  160.8086 C.ar    1  UNL1       -0.0000
     39 C         139.3674  138.3760  160.4404 C.ar    1  UNL1       -0.0003
     40 C         140.5133  138.9982  161.1818 C.ar    1  UNL1       -0.0039
@<TRIPOS>BOND
     1    11    12    1
     2    12    10    1
     3    10     4    1
     4     4     5   ar
     5     5     6   ar
     6     6     1    1
     7     1     2    1
     8     1    16    1
     9    16    17    1
    10    17    18    1
    11    18    19    1
    12    18    20    1
    13     1    21    1
    14    21    35    1
    15    35    36   ar
    16    36    37   ar
    17    37    38   ar
    18    38    39   ar
    19    39    40   ar
    20    21    22    1
    21    22    23   ar
    22    23    24   ar
    23    24    25   ar
    24    25    26   ar
    25    26    27    1
    26    26    28   ar
    27    28    29   ar
    28    29    30   ar
    29    30    31   ar
    30    31    32   ar
    31    32    33    1
    32    33    34    1
    33     6     7   ar
    34     7     8   ar
    35     8    13    1
    36    13    14    1
    37    14    15    1
    38     8     9   ar
    39     9     4   ar
    40    40    35   ar
    41    32    22   ar
    42    30    24   ar
    43     2     3    1
@<TRIPOS>MOLECULE
*****
 40 43 0 0 0
SMALL
GASTEIGER

@<TRIPOS>ATOM
      1 C         142.5524  141.7154  161.9647 C.3     1  UNL1        0.1159
      2 O         143.5364  140.6922  162.4491 O.3     1  UNL1       -0.3820
      3 H         144.4305  140.9470  162.1724 H       1  UNL1        0.2107
      4 C         140.4964  144.0846  159.5336 C.ar    1  UNL1        0.1070
      5 C         141.4804  143.0613  160.0180 C.ar    1  UNL1        0.0235
      6 C         141.5684  142.7387  161.4803 C.ar    1  UNL1        0.0064
      7 C         140.6724  143.4394  162.4581 C.ar    1  UNL1        0.0235
      8 C         139.6884  144.4627  161.9736 C.ar    1  UNL1        0.1070
      9 N         139.6004  144.7853  160.5114 N.ar    1  UNL1       -0.2330
     10 S         140.4085  144.4071  158.0713 S.3     1  UNL1       -0.0950
     11 C         140.1374  146.3742  156.3959 C.3     1  UNL1        0.0130
     12 C         140.8309  145.7580  157.5745 C.3     1  UNL1        0.0637
     13 S         138.7924  145.1634  162.9515 S.3     1  UNL1       -0.0950
     14 C         138.2728  144.4292  164.1520 C.3     1  UNL1        0.0637
     15 C         138.5882  144.9282  165.5309 C.3     1  UNL1        0.0130
     16 C         143.6710  142.4952  161.3395 C.3     1  UNL1        0.0491
     17 C         144.7146  143.1355  162.2060 C.3     1  UNL1        0.0750
     18 N         144.3314  143.7226  163.5321 N.3     1  UNL1       -0.2702
     19 C         143.6505  145.0577  163.5926 C.3     1  UNL1        0.0897
     20 C         144.6290  142.9745  164.7976 C.3     1  UNL1        0.0897
     21 C         141.4338  140.9357  162.5898 C.3     1  UNL1        0.0776
     22 C         141.4245  140.6931  164.0701 C.ar    1  UNL1        0.0373
     23 C         141.1021  141.8150  165.0120 C.ar    1  UNL1        0.0023
     24 C         141.0927  141.5723  166.4923 C.ar    1  UNL1        0.0181
     25 C         140.7703  142.6943  167.4342 C.ar    1  UNL1        0.0082
     26 C         140.7610  142.4516  168.9143 C.ar    1  UNL1        0.0347
     27 BR        140.4386  143.5736  169.8564 Br      1  UNL1       -0.0490
     28 C         141.0741  141.0870  169.4526 C.ar    1  UNL1        0.0082
     29 C         141.3966  139.9650  168.5107 C.ar    1  UNL1        0.0197
     30 C         141.4059  140.2077  167.0305 C.ar    1  UNL1        0.0844
     31 N         141.7283  139.0857  166.0885 N.ar    1  UNL1       -0.2119
     32 C         141.7376  139.3284  164.6083 C.ar    1  UNL1        0.2211
     33 O         142.0600  138.2065  163.6663 O.3     1  UNL1       -0.4563
     34 C         141.0627  137.1098  163.4369 C.3     1  UNL1        0.2542
     35 C         140.3246  140.3987  161.7348 C.ar    1  UNL1       -0.0157
     36 C         138.8956  140.6572  162.1105 C.ar    1  UNL1       -0.0039
     37 C         137.7863  140.1202  161.2555 C.ar    1  UNL1       -0.0003
     38 C         138.1060  139.3246  160.0247 C.ar    1  UNL1       -0.0000
     39 C         139.5350  139.0661  159.6489 C.ar    1  UNL1       -0.0003
     40 C         140.6443  139.6031  160.5040 C.ar    1  UNL1       -0.0039
@<TRIPOS>BOND
     1    11    12    1
     2    12    10    1
     3    10     4    1
     4     4     5   ar
     5     5     6   ar
     6     6     1    1
     7     1     2    1
     8     1    16    1
     9    16    17    1
    10    17    18    1
    11    18    19    1
    12    18    20    1
    13     1    21    1
    14    21    35    1
    15    35    36   ar
    16    36    37   ar
    17    37    38   ar
    18    38    39   ar
    19    39    40   ar
    20    21    22    1
    21    22    23   ar
    22    23    24   ar
    23    24    25   ar
    24    25    26   ar
    25    26    27    1
    26    26    28   ar
    27    28    29   ar
    28    29    30   ar
    29    30    31   ar
    30    31    32   ar
    31    32    33    1
    32    33    34    1
    33     6     7   ar
    34     7     8   ar
    35     8    13    1
    36    13    14    1
    37    14    15    1
    38     8     9   ar
    39     9     4   ar
    40    40    35   ar
    41    32    22   ar
    42    30    24   ar
    43     2     3    1
@<TRIPOS>MOLECULE
*****
 40 43 0 0 0
SMALL
GASTEIGER

@<TRIPOS>ATOM
      1 C         139.3619  139.4352  163.7235 C.3     1  UNL1        0.1159
      2 O         137.8818  139.4892  163.4860 O.3     1  UNL1       -0.3820
      3 H         137.6122  138.7268  162.9505 H       1  UNL1        0.2107
      4 C         142.8533  138.8416  165.5146 C.ar    1  UNL1        0.1070
      5 C         141.3732  138.8956  165.2771 C.ar    1  UNL1        0.0235
      6 C         140.8420  139.3812  163.9611 C.ar    1  UNL1        0.0064
      7 C         141.7909  139.8129  162.8826 C.ar    1  UNL1        0.0235
      8 C         143.2710  139.7589  163.1201 C.ar    1  UNL1        0.1070
      9 N         143.8022  139.2732  164.4361 N.ar    1  UNL1       -0.2330
     10 S         143.3844  138.3559  166.8307 S.3     1  UNL1       -0.0950
     11 C         143.0229  138.3400  169.4034 C.3     1  UNL1        0.0130
     12 C         143.0247  139.0759  168.0964 C.3     1  UNL1        0.0637
     13 S         144.2199  140.1906  162.0415 S.3     1  UNL1       -0.0950
     14 C         144.7822  141.5812  162.0497 C.3     1  UNL1        0.0637
     15 C         144.3808  142.5588  160.9853 C.3     1  UNL1        0.0130
     16 C         139.4431  138.1655  162.9291 C.3     1  UNL1        0.0491
     17 C         138.6123  138.0011  161.6910 C.3     1  UNL1        0.0750
     18 N         138.8641  138.8739  160.4974 N.3     1  UNL1       -0.2702
     19 C         137.8500  139.9025  160.0931 C.3     1  UNL1        0.0897
     20 C         140.1301  138.7182  159.7081 C.3     1  UNL1        0.0897
     21 C         139.2807  140.7050  164.5180 C.3     1  UNL1        0.0776
     22 C         139.4864  140.6746  166.0036 C.ar    1  UNL1        0.0373
     23 C         140.4847  141.5947  166.6415 C.ar    1  UNL1        0.0023
     24 C         140.6904  141.5643  168.1271 C.ar    1  UNL1        0.0181
     25 C         141.6886  142.4843  168.7650 C.ar    1  UNL1        0.0082
     26 C         141.8943  142.4539  170.2505 C.ar    1  UNL1        0.0347
     27 BR        142.8925  143.3740  170.8884 Br      1  UNL1       -0.0490
     28 C         141.1017  141.5034  171.0981 C.ar    1  UNL1        0.0082
     29 C         140.1035  140.5834  170.4602 C.ar    1  UNL1        0.0197
     30 C         139.8978  140.6138  168.9747 C.ar    1  UNL1        0.0844
     31 N         138.8995  139.6937  168.3367 N.ar    1  UNL1       -0.2119
     32 C         138.6939  139.7241  166.8512 C.ar    1  UNL1        0.2211
     33 O         137.6956  138.8040  166.2132 O.3     1  UNL1       -0.4563
     34 C         137.6778  137.3487  166.5765 C.3     1  UNL1        0.2542
     35 C         138.9939  142.0050  163.8270 C.ar    1  UNL1       -0.0157
     36 C         137.8792  142.8829  164.3135 C.ar    1  UNL1       -0.0039
     37 C         137.5923  144.1830  163.6225 C.ar    1  UNL1       -0.0003
     38 C         138.4201  144.6052  162.4450 C.ar    1  UNL1       -0.0000
     39 C         139.5349  143.7272  161.9586 C.ar    1  UNL1       -0.0003
     40 C         139.8218  142.4272  162.6496 C.ar    1  UNL1       -0.0039
@<TRIPOS>BOND
     1    11    12    1
     2    12    10    1
     3    10     4    1
     4     4     5   ar
     5     5     6   ar
     6     6     1    1
     7     1     2    1
     8     1    16    1
     9    16    17    1
    10    17    18    1
    11    18    19    1
    12    18    20    1
    13     1    21    1
    14    21    35    1
    15    35    36   ar
    16    36    37   ar
    17    37    38   ar
    18    38    39   ar
    19    39    40   ar
    20    21    22    1
    21    22    23   ar
    22    23    24   ar
    23    24    25   ar
    24    25    26   ar
    25    26    27    1
    26    26    28   ar
    27    28    29   ar
    28    29    30   ar
    29    30    31   ar
    30    31    32   ar
    31    32    33    1
    32    33    34    1
    33     6     7   ar
    34     7     8   ar
    35     8    13    1
    36    13    14    1
    37    14    15    1
    38     8     9   ar
    39     9     4   ar
    40    40    35   ar
    41    32    22   ar
    42    30    24   ar
    43     2     3    1
@<TRIPOS>MOLECULE
*****
 40 43 0 0 0
SMALL
GASTEIGER

@<TRIPOS>ATOM
      1 C         142.4652  142.7169  164.3778 C.3     1  UNL1        0.1159
      2 O         143.1135  143.9111  163.7425 O.3     1  UNL1       -0.3820
      3 H         143.9486  144.1052  164.1962 H       1  UNL1        0.2107
      4 C         140.5673  140.4415  167.0181 C.ar    1  UNL1        0.1070
      5 C         141.2156  141.6357  166.3827 C.ar    1  UNL1        0.0235
      6 C         141.8169  141.5227  165.0132 C.ar    1  UNL1        0.0064
      7 C         141.7699  140.2156  164.2790 C.ar    1  UNL1        0.0235
      8 C         141.1216  139.0214  164.9144 C.ar    1  UNL1        0.1070
      9 N         140.5203  139.1344  166.2839 N.ar    1  UNL1       -0.2330
     10 S         139.9660  140.5546  168.3877 S.3     1  UNL1       -0.0950
     11 C         142.1319  139.5649  169.4266 C.3     1  UNL1        0.0130
     12 C         140.7730  140.1773  169.5945 C.3     1  UNL1        0.0637
     13 S         141.0746  137.7142  164.1801 S.3     1  UNL1       -0.0950
     14 C         140.3442  137.6135  162.8738 C.3     1  UNL1        0.0637
     15 C         139.0622  138.3654  162.6715 C.3     1  UNL1        0.0130
     16 C         143.6057  142.6132  165.3466 C.3     1  UNL1        0.0491
     17 C         144.9941  142.3479  164.8449 C.3     1  UNL1        0.0750
     18 N         145.2207  141.3270  163.7695 N.3     1  UNL1       -0.2702
     19 C         145.2926  139.8706  164.1211 C.3     1  UNL1        0.0897
     20 C         145.3754  141.7625  162.3425 C.3     1  UNL1        0.0897
     21 C         141.3247  142.8206  163.4091 C.3     1  UNL1        0.0776
     22 C         141.5480  142.5323  161.9540 C.ar    1  UNL1        0.0373
     23 C         141.7263  141.1175  161.4886 C.ar    1  UNL1        0.0023
     24 C         141.9496  140.8292  160.0336 C.ar    1  UNL1        0.0181
     25 C         142.1280  139.4145  159.5681 C.ar    1  UNL1        0.0082
     26 C         142.3512  139.1262  158.1131 C.ar    1  UNL1        0.0347
     27 BR        142.5296  137.7114  157.6476 Br      1  UNL1       -0.0490
     28 C         142.3962  140.2526  157.1236 C.ar    1  UNL1        0.0082
     29 C         142.2178  141.6673  157.5891 C.ar    1  UNL1        0.0197
     30 C         141.9945  141.9556  159.0440 C.ar    1  UNL1        0.0844
     31 N         141.8162  143.3704  159.5096 N.ar    1  UNL1       -0.2119
     32 C         141.5929  143.6587  160.9645 C.ar    1  UNL1        0.2211
     33 O         141.4145  145.0735  161.4301 O.3     1  UNL1       -0.4563
     34 C         140.1051  145.7735  161.2174 C.3     1  UNL1        0.2542
     35 C         139.9609  143.2127  163.8953 C.ar    1  UNL1       -0.0157
     36 C         138.7705  142.3673  163.5517 C.ar    1  UNL1       -0.0039
     37 C         137.4067  142.7593  164.0380 C.ar    1  UNL1       -0.0003
     38 C         137.2334  143.9968  164.8677 C.ar    1  UNL1       -0.0000
     39 C         138.4239  144.8423  165.2113 C.ar    1  UNL1       -0.0003
     40 C         139.7876  144.4502  164.7251 C.ar    1  UNL1       -0.0039
@<TRIPOS>BOND
     1    11    12    1
     2    12    10    1
     3    10     4    1
     4     4     5   ar
     5     5     6   ar
     6     6     1    1
     7     1     2    1
     8     1    16    1
     9    16    17    1
    10    17    18    1
    11    18    19    1
    12    18    20    1
    13     1    21    1
    14    21    35    1
    15    35    36   ar
    16    36    37   ar
    17    37    38   ar
    18    38    39   ar
    19    39    40   ar
    20    21    22    1
    21    22    23   ar
    22    23    24   ar
    23    24    25   ar
    24    25    26   ar
    25    26    27    1
    26    26    28   ar
    27    28    29   ar
    28    29    30   ar
    29    30    31   ar
    30    31    32   ar
    31    32    33    1
    32    33    34    1
    33     6     7   ar
    34     7     8   ar
    35     8    13    1
    36    13    14    1
    37    14    15    1
    38     8     9   ar
    39     9     4   ar
    40    40    35   ar
    41    32    22   ar
    42    30    24   ar
    43     2     3    1
@<TRIPOS>MOLECULE
*****
 40 43 0 0 0
SMALL
GASTEIGER

@<TRIPOS>ATOM
      1 C         140.3291  139.7220  162.5256 C.3     1  UNL1        0.1159
      2 O         141.0271  138.5295  163.1095 O.3     1  UNL1       -0.3820
      3 H         140.4827  137.7380  162.9744 H       1  UNL1        0.2107
      4 C         138.3426  143.1475  162.2625 C.ar    1  UNL1        0.1070
      5 C         139.0405  141.9550  162.8464 C.ar    1  UNL1        0.0235
      6 C         139.6312  140.9145  161.9418 C.ar    1  UNL1        0.0064
      7 C         139.5240  141.0664  160.4534 C.ar    1  UNL1        0.0235
      8 C         138.8261  142.2589  159.8696 C.ar    1  UNL1        0.1070
      9 N         138.2354  143.2995  160.7741 N.ar    1  UNL1       -0.2330
     10 S         137.7518  144.1881  163.1672 S.3     1  UNL1       -0.0950
     11 C         138.7952  144.9205  165.4310 C.3     1  UNL1        0.0130
     12 C         137.8625  144.0381  164.6556 C.3     1  UNL1        0.0637
     13 S         138.7190  142.4109  158.3811 S.3     1  UNL1       -0.0950
     14 C         139.4154  143.5461  157.6910 C.3     1  UNL1        0.0637
     15 C         140.7762  143.9805  158.1487 C.3     1  UNL1        0.0130
     16 C         139.1895  138.8455  162.0977 C.3     1  UNL1        0.0491
     17 C         138.4118  138.0732  163.1218 C.3     1  UNL1        0.0750
     18 N         138.5892  138.3726  164.5808 N.3     1  UNL1       -0.2702
     19 C         139.2675  137.3764  165.4739 C.3     1  UNL1        0.0897
     20 C         138.0882  139.6681  165.1469 C.3     1  UNL1        0.0897
     21 C         141.4688  140.5984  162.9535 C.3     1  UNL1        0.0776
     22 C         141.8060  140.7330  164.4090 C.ar    1  UNL1        0.0373
     23 C         141.0457  141.6987  165.2688 C.ar    1  UNL1        0.0023
     24 C         141.3829  141.8333  166.7242 C.ar    1  UNL1        0.0181
     25 C         140.6227  142.7990  167.5841 C.ar    1  UNL1        0.0082
     26 C         140.9599  142.9336  169.0394 C.ar    1  UNL1        0.0347
     27 BR        140.1996  143.8993  169.8993 Br      1  UNL1       -0.0490
     28 C         142.0573  142.1024  169.6350 C.ar    1  UNL1        0.0082
     29 C         142.8176  141.1366  168.7752 C.ar    1  UNL1        0.0197
     30 C         142.4804  141.0021  167.3198 C.ar    1  UNL1        0.0844
     31 N         143.2406  140.0363  166.4599 N.ar    1  UNL1       -0.2119
     32 C         142.9034  139.9018  165.0045 C.ar    1  UNL1        0.2211
     33 O         143.6637  138.9360  164.1446 O.3     1  UNL1       -0.4563
     34 C         145.0705  139.2489  163.7287 C.3     1  UNL1        0.2542
     35 C         142.2712  141.3403  161.9260 C.ar    1  UNL1       -0.0157
     36 C         142.3709  142.8356  161.9887 C.ar    1  UNL1       -0.0039
     37 C         143.1733  143.5775  160.9612 C.ar    1  UNL1       -0.0003
     38 C         143.8760  142.8240  159.8711 C.ar    1  UNL1       -0.0000
     39 C         143.7763  141.3286  159.8084 C.ar    1  UNL1       -0.0003
     40 C         142.9739  140.5868  160.8359 C.ar    1  UNL1       -0.0039
@<TRIPOS>BOND
     1    11    12    1
     2    12    10    1
     3    10     4    1
     4     4     5   ar
     5     5     6   ar
     6     6     1    1
     7     1     2    1
     8     1    16    1
     9    16    17    1
    10    17    18    1
    11    18    19    1
    12    18    20    1
    13     1    21    1
    14    21    35    1
    15    35    36   ar
    16    36    37   ar
    17    37    38   ar
    18    38    39   ar
    19    39    40   ar
    20    21    22    1
    21    22    23   ar
    22    23    24   ar
    23    24    25   ar
    24    25    26   ar
    25    26    27    1
    26    26    28   ar
    27    28    29   ar
    28    29    30   ar
    29    30    31   ar
    30    31    32   ar
    31    32    33    1
    32    33    34    1
    33     6     7   ar
    34     7     8   ar
    35     8    13    1
    36    13    14    1
    37    14    15    1
    38     8     9   ar
    39     9     4   ar
    40    40    35   ar
    41    32    22   ar
    42    30    24   ar
    43     2     3    1
@<TRIPOS>MOLECULE
*****
 40 43 0 0 0
SMALL
GASTEIGER

@<TRIPOS>ATOM
      1 C         142.9822  140.8979  163.5379 C.3     1  UNL1        0.1159
      2 O         143.8687  140.1288  162.6037 O.3     1  UNL1       -0.3820
      3 H         144.7972  140.2886  162.8341 H       1  UNL1        0.2107
      4 C         141.1520  142.0677  166.8593 C.ar    1  UNL1        0.1070
      5 C         142.0384  141.2986  165.9251 C.ar    1  UNL1        0.0235
      6 C         142.0958  141.6669  164.4722 C.ar    1  UNL1        0.0064
      7 C         141.2667  142.8042  163.9535 C.ar    1  UNL1        0.0235
      8 C         140.3802  143.5732  164.8877 C.ar    1  UNL1        0.1070
      9 N         140.3229  143.2050  166.3406 N.ar    1  UNL1       -0.2330
     10 S         141.0946  141.6994  168.3123 S.3     1  UNL1       -0.0950
     11 C         143.4430  142.2857  169.2564 C.3     1  UNL1        0.0130
     12 C         141.9506  142.4284  169.3052 C.3     1  UNL1        0.0637
     13 S         139.5511  144.7106  164.3689 S.3     1  UNL1       -0.0950
     14 C         139.2327  144.8003  162.9058 C.3     1  UNL1        0.0637
     15 C         139.7232  145.9677  162.1018 C.3     1  UNL1        0.0130
     16 C         144.1919  141.4318  164.2462 C.3     1  UNL1        0.0491
     17 C         145.1843  142.2761  163.5032 C.3     1  UNL1        0.0750
     18 N         144.7222  143.1791  162.3981 N.3     1  UNL1       -0.2702
     19 C         144.8867  142.7585  160.9677 C.3     1  UNL1        0.0897
     20 C         144.0957  144.5025  162.7234 C.3     1  UNL1        0.0897
     21 C         141.7725  140.3640  162.8296 C.3     1  UNL1        0.0776
     22 C         141.5070  140.7492  161.4044 C.ar    1  UNL1        0.0373
     23 C         141.2944  142.1896  161.0440 C.ar    1  UNL1        0.0023
     24 C         141.0288  142.5748  159.6188 C.ar    1  UNL1        0.0181
     25 C         140.8162  144.0152  159.2583 C.ar    1  UNL1        0.0082
     26 C         140.5507  144.4004  157.8332 C.ar    1  UNL1        0.0347
     27 BR        140.3380  145.8408  157.4727 Br      1  UNL1       -0.0490
     28 C         140.4978  143.3451  156.7685 C.ar    1  UNL1        0.0082
     29 C         140.7104  141.9047  157.1289 C.ar    1  UNL1        0.0197
     30 C         140.9760  141.5196  158.5540 C.ar    1  UNL1        0.0844
     31 N         141.1886  140.0791  158.9145 N.ar    1  UNL1       -0.2119
     32 C         141.4541  139.6939  160.3397 C.ar    1  UNL1        0.2211
     33 O         141.6668  138.2534  160.7002 O.3     1  UNL1       -0.4563
     34 C         142.9564  137.5742  160.3460 C.3     1  UNL1        0.2542
     35 C         140.8284  139.4449  163.5465 C.ar    1  UNL1       -0.0157
     36 C         141.3259  138.1437  164.1026 C.ar    1  UNL1       -0.0039
     37 C         140.3818  137.2245  164.8195 C.ar    1  UNL1       -0.0003
     38 C         138.9402  137.6066  164.9802 C.ar    1  UNL1       -0.0000
     39 C         138.4428  138.9079  164.4241 C.ar    1  UNL1       -0.0003
     40 C         139.3869  139.8270  163.7072 C.ar    1  UNL1       -0.0039
@<TRIPOS>BOND
     1    11    12    1
     2    12    10    1
     3    10     4    1
     4     4     5   ar
     5     5     6   ar
     6     6     1    1
     7     1     2    1
     8     1    16    1
     9    16    17    1
    10    17    18    1
    11    18    19    1
    12    18    20    1
    13     1    21    1
    14    21    35    1
    15    35    36   ar
    16    36    37   ar
    17    37    38   ar
    18    38    39   ar
    19    39    40   ar
    20    21    22    1
    21    22    23   ar
    22    23    24   ar
    23    24    25   ar
    24    25    26   ar
    25    26    27    1
    26    26    28   ar
    27    28    29   ar
    28    29    30   ar
    29    30    31   ar
    30    31    32   ar
    31    32    33    1
    32    33    34    1
    33     6     7   ar
    34     7     8   ar
    35     8    13    1
    36    13    14    1
    37    14    15    1
    38     8     9   ar
    39     9     4   ar
    40    40    35   ar
    41    32    22   ar
    42    30    24   ar
    43     2     3    1
@<TRIPOS>MOLECULE
*****
 40 43 0 0 0
SMALL
GASTEIGER

@<TRIPOS>ATOM
      1 C         142.9934  140.8908  163.5979 C.3     1  UNL1        0.1159
      2 O         143.8583  140.2032  162.5834 O.3     1  UNL1       -0.3820
      3 H         144.7917  140.3709  162.7874 H       1  UNL1        0.2107
      4 C         140.3657  143.3920  165.2071 C.ar    1  UNL1        0.1070
      5 C         141.2307  142.7044  164.1927 C.ar    1  UNL1        0.0235
      6 C         142.1285  141.5784  164.6123 C.ar    1  UNL1        0.0064
      7 C         142.1614  141.1401  166.0464 C.ar    1  UNL1        0.0235
      8 C         141.2964  141.8277  167.0609 C.ar    1  UNL1        0.1070
      9 N         140.3986  142.9536  166.6412 N.ar    1  UNL1       -0.2330
     10 S         139.4679  144.5180  164.7874 S.3     1  UNL1       -0.0950
     11 C         137.7881  143.3889  163.1585 C.3     1  UNL1        0.0130
     12 C         138.0559  144.2348  164.3679 C.3     1  UNL1        0.0637
     13 S         141.3294  141.3893  168.4951 S.3     1  UNL1       -0.0950
     14 C         142.5398  140.6890  169.0376 C.3     1  UNL1        0.0637
     15 C         142.4091  139.3193  169.6349 C.3     1  UNL1        0.0130
     16 C         144.2185  141.4090  164.2912 C.3     1  UNL1        0.0491
     17 C         145.1931  142.2723  163.5464 C.3     1  UNL1        0.0750
     18 N         144.7063  143.1956  162.4692 N.3     1  UNL1       -0.2702
     19 C         144.8516  142.8084  161.0273 C.3     1  UNL1        0.0897
     20 C         144.0743  144.5062  162.8337 C.3     1  UNL1        0.0897
     21 C         141.7683  140.3727  162.9045 C.3     1  UNL1        0.0776
     22 C         141.4776  140.7808  161.4906 C.ar    1  UNL1        0.0373
     23 C         141.2828  142.2292  161.1530 C.ar    1  UNL1        0.0023
     24 C         140.9921  142.6372  159.7391 C.ar    1  UNL1        0.0181
     25 C         140.7974  144.0857  159.4014 C.ar    1  UNL1        0.0082
     26 C         140.5067  144.4937  157.9876 C.ar    1  UNL1        0.0347
     27 BR        140.3120  145.9422  157.6499 Br      1  UNL1       -0.0490
     28 C         140.4108  143.4532  156.9114 C.ar    1  UNL1        0.0082
     29 C         140.6055  142.0048  157.2490 C.ar    1  UNL1        0.0197
     30 C         140.8962  141.5968  158.6629 C.ar    1  UNL1        0.0844
     31 N         141.0910  140.1483  159.0006 N.ar    1  UNL1       -0.2119
     32 C         141.3817  139.7403  160.4144 C.ar    1  UNL1        0.2211
     33 O         141.5764  138.2918  160.7521 O.3     1  UNL1       -0.4563
     34 C         142.8869  137.6231  160.4595 C.3     1  UNL1        0.2542
     35 C         140.8339  139.4466  163.6251 C.ar    1  UNL1       -0.0157
     36 C         141.3328  138.1289  164.1396 C.ar    1  UNL1       -0.0039
     37 C         140.3984  137.2027  164.8601 C.ar    1  UNL1       -0.0003
     38 C         138.9651  137.5943  165.0661 C.ar    1  UNL1       -0.0000
     39 C         138.4663  138.9120  164.5516 C.ar    1  UNL1       -0.0003
     40 C         139.4007  139.8382  163.8311 C.ar    1  UNL1       -0.0039
@<TRIPOS>BOND
     1    11    12    1
     2    12    10    1
     3    10     4    1
     4     4     5   ar
     5     5     6   ar
     6     6     1    1
     7     1     2    1
     8     1    16    1
     9    16    17    1
    10    17    18    1
    11    18    19    1
    12    18    20    1
    13     1    21    1
    14    21    35    1
    15    35    36   ar
    16    36    37   ar
    17    37    38   ar
    18    38    39   ar
    19    39    40   ar
    20    21    22    1
    21    22    23   ar
    22    23    24   ar
    23    24    25   ar
    24    25    26   ar
    25    26    27    1
    26    26    28   ar
    27    28    29   ar
    28    29    30   ar
    29    30    31   ar
    30    31    32   ar
    31    32    33    1
    32    33    34    1
    33     6     7   ar
    34     7     8   ar
    35     8    13    1
    36    13    14    1
    37    14    15    1
    38     8     9   ar
    39     9     4   ar
    40    40    35   ar
    41    32    22   ar
    42    30    24   ar
    43     2     3    1
