@<TRIPOS>MOLECULE
*****
 34 38 0 0 0
SMALL
GASTEIGER

@<TRIPOS>ATOM
      1 C         139.9825  139.5848  162.9277 C.ar    1  UNL1        0.0878
      2 C         138.8710  138.7448  163.4835 C.ar    1  UNL1        0.1543
      3 F         138.0443  137.8927  162.5667 F       1  UNL1       -0.2028
      4 C         138.5862  138.7568  164.9561 C.ar    1  UNL1        0.0356
      5 C         139.4129  139.6089  165.8730 C.ar    1  UNL1        0.0580
      6 C         139.1280  139.6209  167.3457 C.ar    1  UNL1        0.1996
      7 O         138.0165  138.7810  167.9015 O.2     1  UNL1       -0.2864
      8 C         139.9547  140.4730  168.2625 C.ar    1  UNL1        0.0701
      9 C         141.0663  141.3130  167.7067 C.ar    1  UNL1        0.0801
     10 N         141.3511  141.3009  166.2340 N.ar    1  UNL1       -0.3270
     11 C         140.5244  140.4489  165.3172 C.ar    1  UNL1        0.0750
     12 C         140.8092  140.4368  163.8446 C.ar    1  UNL1        0.0890
     13 CL        141.9207  141.2768  163.2887 Cl      1  UNL1       -0.0794
     14 C         141.0052  138.8694  159.2524 C.3     1  UNL1        0.0930
     15 C         140.4062  140.2388  159.1253 C.3     1  UNL1        0.0427
     16 C         139.9502  140.6734  160.4866 C.3     1  UNL1        0.0927
     17 N         140.2674  139.5727  161.4550 N.pl3   1  UNL1       -0.3033
     18 C         140.9194  138.4578  160.6922 C.3     1  UNL1        0.1104
     19 O         139.2290  137.8287  157.0702 O.2     1  UNL1       -0.2729
     20 C         140.6997  137.5344  157.0446 C.2     1  UNL1        0.2493
     21 N         141.5878  138.0548  158.1357 N.am    1  UNL1       -0.3025
     22 H         142.5530  137.8617  158.1189 H       1  UNL1        0.1495
     23 C         141.2822  136.7198  155.9279 C.3     1  UNL1        0.2338
     24 N         141.9958  135.4354  156.2297 N.ar    1  UNL1       -0.1607
     25 N         143.1295  135.2628  157.1965 N.ar    1  UNL1       -0.1486
     26 C         143.5353  133.8188  157.1819 C.ar    1  UNL1        0.1442
     27 C         142.6524  133.0990  156.2061 C.ar    1  UNL1        0.1442
     28 N         141.7010  134.0981  155.6175 N.ar    1  UNL1       -0.1486
     29 C         139.6699  140.4850  169.7352 C.2     1  UNL1        0.0774
     30 O         140.2318  139.4092  170.6166 O.co2   1  UNL1       -0.5444
     31 O         138.8232  141.5730  170.3265 O.co2   1  UNL1       -0.5444
     32 C         142.4626  142.1409  165.6782 C.3     1  UNL1        0.0857
     33 C         142.9276  143.3902  164.9905 C.3     1  UNL1        0.0245
     34 C         143.9227  142.3466  165.4034 C.3     1  UNL1        0.0245
@<TRIPOS>UNITY_ATOM_ATTR
30 1
charge -1
@<TRIPOS>BOND
     1    19    20    2
     2    20    23    1
     3    23    24    1
     4    24    25   ar
     5    25    26   ar
     6    26    27   ar
     7    27    28   ar
     8    20    21   am
     9    21    14    1
    10    14    15    1
    11    15    16    1
    12    16    17    1
    13    17     1    1
    14     1     2   ar
    15     2     3    1
    16     2     4   ar
    17     4     5   ar
    18     5     6   ar
    19     6     7    2
    20     6     8   ar
    21     8    29    1
    22    29    30   ar
    23    29    31   ar
    24     8     9   ar
    25     9    10   ar
    26    10    32    1
    27    32    33    1
    28    33    34    1
    29    10    11   ar
    30    11    12   ar
    31    12    13    1
    32    17    18    1
    33    28    24   ar
    34    18    14    1
    35    12     1   ar
    36    11     5   ar
    37    34    32    1
    38    21    22    1
@<TRIPOS>MOLECULE
*****
 34 38 0 0 0
SMALL
GASTEIGER

@<TRIPOS>ATOM
      1 C         142.1818  142.4652  163.8470 C.ar    1  UNL1        0.0878
      2 C         143.2755  143.2293  164.5326 C.ar    1  UNL1        0.1543
      3 F         144.1138  144.1998  163.7545 F       1  UNL1       -0.2028
      4 C         143.5309  143.0230  165.9961 C.ar    1  UNL1        0.0356
      5 C         142.6926  142.0525  166.7742 C.ar    1  UNL1        0.0580
      6 C         142.9480  141.8462  168.2379 C.ar    1  UNL1        0.1996
      7 O         144.0416  142.6103  168.9234 O.2     1  UNL1       -0.2864
      8 C         142.1097  140.8757  169.0160 C.ar    1  UNL1        0.0701
      9 C         141.0159  140.1116  168.3304 C.ar    1  UNL1        0.0801
     10 N         140.7606  140.3179  166.8668 N.ar    1  UNL1       -0.3270
     11 C         141.5989  141.2884  166.0887 C.ar    1  UNL1        0.0750
     12 C         141.3435  141.4947  164.6251 C.ar    1  UNL1        0.0890
     13 CL        140.2498  140.7306  163.9395 Cl      1  UNL1       -0.0794
     14 C         141.0491  143.5385  160.2930 C.3     1  UNL1        0.0930
     15 C         142.0176  142.4397  159.9692 C.3     1  UNL1        0.0427
     16 C         142.5598  141.9040  161.2610 C.3     1  UNL1        0.0927
     17 N         141.9264  142.6716  162.3834 N.pl3   1  UNL1       -0.3033
     18 C         140.9928  143.6818  161.7851 C.3     1  UNL1        0.1104
     19 O         142.4767  145.4646  158.4896 O.2     1  UNL1       -0.2729
     20 C         140.9870  145.3143  158.3976 C.2     1  UNL1        0.2493
     21 N         140.2733  144.3513  159.2994 N.am    1  UNL1       -0.3025
     22 H         139.2956  144.2526  159.2390 H       1  UNL1        0.1495
     23 C         140.2112  146.1271  157.4039 C.3     1  UNL1        0.2338
     24 N         139.2329  145.4555  156.4863 N.ar    1  UNL1       -0.1607
     25 N         138.3699  146.1371  155.4663 N.ar    1  UNL1       -0.1486
     26 C         137.5496  145.0873  154.7772 C.ar    1  UNL1        0.1442
     27 C         137.9056  143.7568  155.3712 C.ar    1  UNL1        0.1442
     28 N         138.9460  143.9844  156.4276 N.ar    1  UNL1       -0.1486
     29 C         142.3650  140.6693  170.4796 C.2     1  UNL1        0.0774
     30 O         143.4096  139.6906  170.9280 O.co2   1  UNL1       -0.5444
     31 O         141.5758  141.4417  171.4949 O.co2   1  UNL1       -0.5444
     32 C         139.6669  139.5538  166.1813 C.3     1  UNL1        0.0857
     33 C         139.2081  138.3505  165.4123 C.3     1  UNL1        0.0245
     34 C         138.2315  139.4336  165.7630 C.3     1  UNL1        0.0245
@<TRIPOS>UNITY_ATOM_ATTR
30 1
charge -1
@<TRIPOS>BOND
     1    19    20    2
     2    20    23    1
     3    23    24    1
     4    24    25   ar
     5    25    26   ar
     6    26    27   ar
     7    27    28   ar
     8    20    21   am
     9    21    14    1
    10    14    15    1
    11    15    16    1
    12    16    17    1
    13    17     1    1
    14     1     2   ar
    15     2     3    1
    16     2     4   ar
    17     4     5   ar
    18     5     6   ar
    19     6     7    2
    20     6     8   ar
    21     8    29    1
    22    29    30   ar
    23    29    31   ar
    24     8     9   ar
    25     9    10   ar
    26    10    32    1
    27    32    33    1
    28    33    34    1
    29    10    11   ar
    30    11    12   ar
    31    12    13    1
    32    17    18    1
    33    28    24   ar
    34    18    14    1
    35    12     1   ar
    36    11     5   ar
    37    34    32    1
    38    21    22    1
@<TRIPOS>MOLECULE
*****
 34 38 0 0 0
SMALL
GASTEIGER

@<TRIPOS>ATOM
      1 C         139.3500  139.8395  163.3213 C.ar    1  UNL1        0.0878
      2 C         138.8898  138.7841  164.2827 C.ar    1  UNL1        0.1543
      3 F         138.3217  137.4955  163.7662 F       1  UNL1       -0.2028
      4 C         138.9978  139.0172  165.7605 C.ar    1  UNL1        0.0356
      5 C         139.5659  140.3058  166.2769 C.ar    1  UNL1        0.0580
      6 C         139.6739  140.5390  167.7548 C.ar    1  UNL1        0.1996
      7 O         139.2137  139.4835  168.7162 O.2     1  UNL1       -0.2864
      8 C         140.2420  141.8275  168.2713 C.ar    1  UNL1        0.0701
      9 C         140.7023  142.8830  167.3098 C.ar    1  UNL1        0.0801
     10 N         140.5943  142.6499  165.8320 N.ar    1  UNL1       -0.3270
     11 C         140.0261  141.3613  165.3156 C.ar    1  UNL1        0.0750
     12 C         139.9182  141.1281  163.8378 C.ar    1  UNL1        0.0890
     13 CL        140.3784  142.1836  162.8764 Cl      1  UNL1       -0.0794
     14 C         138.4858  139.7097  159.5395 C.3     1  UNL1        0.0930
     15 C         139.6661  138.7857  159.5991 C.3     1  UNL1        0.0427
     16 C         140.1334  138.7219  161.0229 C.3     1  UNL1        0.0927
     17 N         139.2421  139.6064  161.8434 N.pl3   1  UNL1       -0.3033
     18 C         138.2239  140.2169  160.9266 C.3     1  UNL1        0.1104
     19 O         138.9236  142.3559  158.1956 O.2     1  UNL1       -0.2729
     20 C         137.9237  141.3873  157.6369 C.2     1  UNL1        0.2493
     21 N         137.7048  140.0642  158.3089 N.am    1  UNL1       -0.3025
     22 H         137.0486  139.4284  157.9423 H       1  UNL1        0.1495
     23 C         137.1427  141.7417  156.4064 C.3     1  UNL1        0.2338
     24 N         135.7562  141.2017  156.2166 N.ar    1  UNL1       -0.1607
     25 N         134.7829  141.6242  155.1563 N.ar    1  UNL1       -0.1486
     26 C         133.5248  140.8279  155.3382 C.ar    1  UNL1        0.1442
     27 C         133.7205  139.9133  156.5108 C.ar    1  UNL1        0.1442
     28 N         135.0996  140.1443  157.0537 N.ar    1  UNL1       -0.1486
     29 C         140.3500  142.0607  169.7491 C.2     1  UNL1        0.0774
     30 O         141.3526  141.2926  170.5583 O.co2   1  UNL1       -0.5444
     31 O         139.4553  143.0620  170.4177 O.co2   1  UNL1       -0.5444
     32 C         141.0545  143.7053  164.8707 C.3     1  UNL1        0.0857
     33 C         140.7516  144.8801  163.9887 C.3     1  UNL1        0.0245
     34 C         142.1545  144.3586  164.0876 C.3     1  UNL1        0.0245
@<TRIPOS>UNITY_ATOM_ATTR
30 1
charge -1
@<TRIPOS>BOND
     1    19    20    2
     2    20    23    1
     3    23    24    1
     4    24    25   ar
     5    25    26   ar
     6    26    27   ar
     7    27    28   ar
     8    20    21   am
     9    21    14    1
    10    14    15    1
    11    15    16    1
    12    16    17    1
    13    17     1    1
    14     1     2   ar
    15     2     3    1
    16     2     4   ar
    17     4     5   ar
    18     5     6   ar
    19     6     7    2
    20     6     8   ar
    21     8    29    1
    22    29    30   ar
    23    29    31   ar
    24     8     9   ar
    25     9    10   ar
    26    10    32    1
    27    32    33    1
    28    33    34    1
    29    10    11   ar
    30    11    12   ar
    31    12    13    1
    32    17    18    1
    33    28    24   ar
    34    18    14    1
    35    12     1   ar
    36    11     5   ar
    37    34    32    1
    38    21    22    1
@<TRIPOS>MOLECULE
*****
 34 38 0 0 0
SMALL
GASTEIGER

@<TRIPOS>ATOM
      1 C         143.1704  140.4225  164.1917 C.ar    1  UNL1        0.0878
      2 C         143.9537  139.4757  165.0520 C.ar    1  UNL1        0.1543
      3 F         145.1171  138.7253  164.4746 F       1  UNL1       -0.2028
      4 C         143.5734  139.2793  166.4896 C.ar    1  UNL1        0.0356
      5 C         142.4100  140.0296  167.0669 C.ar    1  UNL1        0.0580
      6 C         142.0298  139.8332  168.5047 C.ar    1  UNL1        0.1996
      7 O         142.8130  138.8864  169.3649 O.2     1  UNL1       -0.2864
      8 C         140.8664  140.5835  169.0820 C.ar    1  UNL1        0.0701
      9 C         140.0831  141.5304  168.2217 C.ar    1  UNL1        0.0801
     10 N         140.4633  141.7268  166.7840 N.ar    1  UNL1       -0.3270
     11 C         141.6268  140.9764  166.2067 C.ar    1  UNL1        0.0750
     12 C         142.0070  141.1728  164.7691 C.ar    1  UNL1        0.0890
     13 CL        141.2237  142.1197  163.9087 Cl      1  UNL1       -0.0794
     14 C         143.9040  140.2252  160.3853 C.3     1  UNL1        0.0930
     15 C         144.3673  141.6172  160.6980 C.3     1  UNL1        0.0427
     16 C         144.1489  141.8605  162.1619 C.3     1  UNL1        0.0927
     17 N         143.5506  140.6189  162.7540 N.pl3   1  UNL1       -0.3033
     18 C         143.3993  139.6082  161.6560 C.3     1  UNL1        0.1104
     19 O         142.1157  141.2089  158.1865 O.2     1  UNL1       -0.2729
     20 C         143.0451  140.0577  157.9390 C.2     1  UNL1        0.2493
     21 N         143.9392  139.5659  159.0384 N.am    1  UNL1       -0.3025
     22 H         144.5492  138.8104  158.8760 H       1  UNL1        0.1495
     23 C         143.0804  139.3985  156.5921 C.3     1  UNL1        0.2338
     24 N         143.2678  137.9138  156.4884 N.ar    1  UNL1       -0.1607
     25 N         144.1631  137.2039  155.5166 N.ar    1  UNL1       -0.1486
     26 C         144.0415  135.7298  155.7660 C.ar    1  UNL1        0.1442
     27 C         143.0711  135.5287  156.8919 C.ar    1  UNL1        0.1442
     28 N         142.5929  136.8784  157.3384 N.ar    1  UNL1       -0.1486
     29 C         140.4862  140.3871  170.5196 C.2     1  UNL1        0.0774
     30 O         141.3150  141.0060  171.6059 O.co2   1  UNL1       -0.5444
     31 O         139.2771  139.5718  170.8710 O.co2   1  UNL1       -0.5444
     32 C         139.6801  142.6736  165.9238 C.3     1  UNL1        0.0857
     33 C         139.3990  144.0688  165.4503 C.3     1  UNL1        0.0245
     34 C         138.6046  142.9182  164.9073 C.3     1  UNL1        0.0245
@<TRIPOS>UNITY_ATOM_ATTR
30 1
charge -1
@<TRIPOS>BOND
     1    19    20    2
     2    20    23    1
     3    23    24    1
     4    24    25   ar
     5    25    26   ar
     6    26    27   ar
     7    27    28   ar
     8    20    21   am
     9    21    14    1
    10    14    15    1
    11    15    16    1
    12    16    17    1
    13    17     1    1
    14     1     2   ar
    15     2     3    1
    16     2     4   ar
    17     4     5   ar
    18     5     6   ar
    19     6     7    2
    20     6     8   ar
    21     8    29    1
    22    29    30   ar
    23    29    31   ar
    24     8     9   ar
    25     9    10   ar
    26    10    32    1
    27    32    33    1
    28    33    34    1
    29    10    11   ar
    30    11    12   ar
    31    12    13    1
    32    17    18    1
    33    28    24   ar
    34    18    14    1
    35    12     1   ar
    36    11     5   ar
    37    34    32    1
    38    21    22    1
@<TRIPOS>MOLECULE
*****
 34 38 0 0 0
SMALL
GASTEIGER

@<TRIPOS>ATOM
      1 C         140.9011  139.5775  164.3325 C.ar    1  UNL1        0.0878
      2 C         141.5715  138.6750  165.3255 C.ar    1  UNL1        0.1543
      3 F         142.0334  137.3107  164.9067 F       1  UNL1       -0.2028
      4 C         141.7799  139.1368  166.7373 C.ar    1  UNL1        0.0356
      5 C         141.3179  140.5010  167.1562 C.ar    1  UNL1        0.0580
      6 C         141.5263  140.9627  168.5681 C.ar    1  UNL1        0.1996
      7 O         142.1967  140.0602  169.5611 O.2     1  UNL1       -0.2864
      8 C         141.0644  142.3270  168.9869 C.ar    1  UNL1        0.0701
      9 C         140.3940  143.2295  167.9938 C.ar    1  UNL1        0.0801
     10 N         140.1856  142.7677  166.5820 N.ar    1  UNL1       -0.3270
     11 C         140.6475  141.4035  166.1632 C.ar    1  UNL1        0.0750
     12 C         140.4391  140.9417  164.7513 C.ar    1  UNL1        0.0890
     13 CL        139.7687  141.8442  163.7583 Cl      1  UNL1       -0.0794
     14 C         141.0991  138.5191  160.6034 C.3     1  UNL1        0.0930
     15 C         139.6449  138.2913  160.8925 C.3     1  UNL1        0.0427
     16 C         139.3938  138.6601  162.3246 C.3     1  UNL1        0.0927
     17 N         140.6927  139.1157  162.9206 N.pl3   1  UNL1       -0.3033
     18 C         141.7466  139.0286  161.8568 C.3     1  UNL1        0.1104
     19 O         141.6173  140.8131  158.7407 O.2     1  UNL1       -0.2729
     20 C         142.0443  139.4265  158.3598 C.2     1  UNL1        0.2493
     21 N         141.7852  138.2795  159.2912 N.am    1  UNL1       -0.3025
     22 H         142.0654  137.3694  159.0412 H       1  UNL1        0.1495
     23 C         142.7304  139.1868  157.0477 C.3     1  UNL1        0.2338
     24 N         142.9918  137.7847  156.5830 N.ar    1  UNL1       -0.1607
     25 N         144.2214  137.3074  155.8688 N.ar    1  UNL1       -0.1486
     26 C         144.0590  135.8415  155.5955 C.ar    1  UNL1        0.1442
     27 C         142.7290  135.4129  156.1407 C.ar    1  UNL1        0.1442
     28 N         142.0694  136.6138  156.7511 N.ar    1  UNL1       -0.1486
     29 C         141.2728  142.7887  170.3987 C.2     1  UNL1        0.0774
     30 O         140.2624  142.4517  171.4550 O.co2   1  UNL1       -0.5444
     31 O         142.4916  143.5876  170.7544 O.co2   1  UNL1       -0.5444
     32 C         139.5152  143.6702  165.5890 C.3     1  UNL1        0.0857
     33 C         138.2733  144.1362  164.8887 C.3     1  UNL1        0.0245
     34 C         139.5960  144.7674  164.5694 C.3     1  UNL1        0.0245
@<TRIPOS>UNITY_ATOM_ATTR
30 1
charge -1
@<TRIPOS>BOND
     1    19    20    2
     2    20    23    1
     3    23    24    1
     4    24    25   ar
     5    25    26   ar
     6    26    27   ar
     7    27    28   ar
     8    20    21   am
     9    21    14    1
    10    14    15    1
    11    15    16    1
    12    16    17    1
    13    17     1    1
    14     1     2   ar
    15     2     3    1
    16     2     4   ar
    17     4     5   ar
    18     5     6   ar
    19     6     7    2
    20     6     8   ar
    21     8    29    1
    22    29    30   ar
    23    29    31   ar
    24     8     9   ar
    25     9    10   ar
    26    10    32    1
    27    32    33    1
    28    33    34    1
    29    10    11   ar
    30    11    12   ar
    31    12    13    1
    32    17    18    1
    33    28    24   ar
    34    18    14    1
    35    12     1   ar
    36    11     5   ar
    37    34    32    1
    38    21    22    1
@<TRIPOS>MOLECULE
*****
 34 38 0 0 0
SMALL
GASTEIGER

@<TRIPOS>ATOM
      1 C         139.7036  142.6442  164.1578 C.ar    1  UNL1        0.0878
      2 C         139.0168  143.6676  165.0126 C.ar    1  UNL1        0.1543
      3 F         137.9736  144.5652  164.4158 F       1  UNL1       -0.2028
      4 C         139.3730  143.7935  166.4642 C.ar    1  UNL1        0.0356
      5 C         140.4162  142.8959  167.0610 C.ar    1  UNL1        0.0580
      6 C         140.7724  143.0218  168.5127 C.ar    1  UNL1        0.1996
      7 O         140.0856  144.0452  169.3675 O.2     1  UNL1       -0.2864
      8 C         141.8156  142.1242  169.1095 C.ar    1  UNL1        0.0701
      9 C         142.5025  141.1007  168.2546 C.ar    1  UNL1        0.0801
     10 N         142.1462  140.9749  166.8030 N.ar    1  UNL1       -0.3270
     11 C         141.1031  141.8725  166.2062 C.ar    1  UNL1        0.0750
     12 C         140.7468  141.7466  164.7546 C.ar    1  UNL1        0.0890
     13 CL        141.4337  140.7231  163.8998 Cl      1  UNL1       -0.0794
     14 C         139.1930  142.9449  160.3219 C.3     1  UNL1        0.0930
     15 C         138.4054  141.7043  160.6228 C.3     1  UNL1        0.0427
     16 C         138.5008  141.4406  162.0963 C.3     1  UNL1        0.0927
     17 N         139.3474  142.5183  162.7062 N.pl3   1  UNL1       -0.3033
     18 C         139.7752  143.4480  161.6095 C.3     1  UNL1        0.1104
     19 O         141.4247  142.0478  158.5288 O.2     1  UNL1       -0.2729
     20 C         140.4836  143.1238  158.0741 C.2     1  UNL1        0.2493
     21 N         139.3678  143.5723  158.9706 N.am    1  UNL1       -0.3025
     22 H         138.7501  144.2785  158.6722 H       1  UNL1        0.1495
     23 C         140.6583  143.7511  156.7229 C.3     1  UNL1        0.2338
     24 N         139.9631  145.0402  156.3989 N.ar    1  UNL1       -0.1607
     25 N         139.9612  146.2781  157.2461 N.ar    1  UNL1       -0.1486
     26 C         139.1446  147.3206  156.5416 C.ar    1  UNL1        0.1442
     27 C         138.6418  146.7272  155.2591 C.ar    1  UNL1        0.1442
     28 N         139.1476  145.3178  155.1709 N.ar    1  UNL1       -0.1486
     29 C         142.1719  142.2501  170.5611 C.2     1  UNL1        0.0774
     30 O         141.7827  141.1690  171.5254 O.co2   1  UNL1       -0.5444
     31 O         142.9173  143.4571  171.0485 O.co2   1  UNL1       -0.5444
     32 C         142.8331  139.9514  165.9483 C.3     1  UNL1        0.0857
     33 C         143.9385  139.5762  165.0063 C.3     1  UNL1        0.0245
     34 C         142.9175  138.5541  165.4097 C.3     1  UNL1        0.0245
@<TRIPOS>UNITY_ATOM_ATTR
30 1
charge -1
@<TRIPOS>BOND
     1    19    20    2
     2    20    23    1
     3    23    24    1
     4    24    25   ar
     5    25    26   ar
     6    26    27   ar
     7    27    28   ar
     8    20    21   am
     9    21    14    1
    10    14    15    1
    11    15    16    1
    12    16    17    1
    13    17     1    1
    14     1     2   ar
    15     2     3    1
    16     2     4   ar
    17     4     5   ar
    18     5     6   ar
    19     6     7    2
    20     6     8   ar
    21     8    29    1
    22    29    30   ar
    23    29    31   ar
    24     8     9   ar
    25     9    10   ar
    26    10    32    1
    27    32    33    1
    28    33    34    1
    29    10    11   ar
    30    11    12   ar
    31    12    13    1
    32    17    18    1
    33    28    24   ar
    34    18    14    1
    35    12     1   ar
    36    11     5   ar
    37    34    32    1
    38    21    22    1
@<TRIPOS>MOLECULE
*****
 34 38 0 0 0
SMALL
GASTEIGER

@<TRIPOS>ATOM
      1 C         142.9196  141.1209  164.6841 C.ar    1  UNL1        0.0878
      2 C         143.8346  142.0123  165.4704 C.ar    1  UNL1        0.1543
      3 F         145.1138  142.5011  164.8583 F       1  UNL1       -0.2028
      4 C         143.4703  142.4148  166.8686 C.ar    1  UNL1        0.0356
      5 C         142.1911  141.9260  167.4807 C.ar    1  UNL1        0.0580
      6 C         141.8269  142.3286  168.8790 C.ar    1  UNL1        0.1996
      7 O         142.7419  143.2200  169.6653 O.2     1  UNL1       -0.2864
      8 C         140.5476  141.8398  169.4911 C.ar    1  UNL1        0.0701
      9 C         139.6326  140.9484  168.7048 C.ar    1  UNL1        0.0801
     10 N         139.9968  140.5458  167.3065 N.ar    1  UNL1       -0.3270
     11 C         141.2761  141.0347  166.6945 C.ar    1  UNL1        0.0750
     12 C         141.6403  140.6321  165.2962 C.ar    1  UNL1        0.0890
     13 CL        140.7253  139.7407  164.5099 Cl      1  UNL1       -0.0794
     14 C         143.5588  140.7421  160.8744 C.3     1  UNL1        0.0930
     15 C         144.1296  139.4556  161.3935 C.3     1  UNL1        0.0427
     16 C         143.9596  139.4409  162.8837 C.3     1  UNL1        0.0927
     17 N         143.2838  140.7183  163.2858 N.pl3   1  UNL1       -0.3033
     18 C         143.0361  141.5224  162.0440 C.3     1  UNL1        0.1104
     19 O         141.4464  139.6553  159.0424 O.2     1  UNL1       -0.2729
     20 C         142.4618  140.6292  158.5220 C.2     1  UNL1        0.2493
     21 N         143.5180  141.1725  159.4381 N.am    1  UNL1       -0.3025
     22 H         144.1845  141.8117  159.0967 H       1  UNL1        0.1495
     23 C         142.4210  141.0597  157.0857 C.3     1  UNL1        0.2338
     24 N         143.6683  141.0152  156.2537 N.ar    1  UNL1       -0.1607
     25 N         143.8631  141.6753  154.9209 N.ar    1  UNL1       -0.1486
     26 C         145.2550  141.3709  154.4520 C.ar    1  UNL1        0.1442
     27 C         145.9204  140.5228  155.4948 C.ar    1  UNL1        0.1442
     28 N         144.9398  140.3029  156.6084 N.ar    1  UNL1       -0.1486
     29 C         140.1834  142.2424  170.8894 C.2     1  UNL1        0.0774
     30 O         140.7277  141.4739  172.0570 O.co2   1  UNL1       -0.5444
     31 O         139.2748  143.4134  171.1201 O.co2   1  UNL1       -0.5444
     32 C         139.0818  139.6545  166.5203 C.3     1  UNL1        0.0857
     33 C         138.0711  139.4700  165.4274 C.3     1  UNL1        0.0245
     34 C         138.5077  138.2951  166.2514 C.3     1  UNL1        0.0245
@<TRIPOS>UNITY_ATOM_ATTR
30 1
charge -1
@<TRIPOS>BOND
     1    19    20    2
     2    20    23    1
     3    23    24    1
     4    24    25   ar
     5    25    26   ar
     6    26    27   ar
     7    27    28   ar
     8    20    21   am
     9    21    14    1
    10    14    15    1
    11    15    16    1
    12    16    17    1
    13    17     1    1
    14     1     2   ar
    15     2     3    1
    16     2     4   ar
    17     4     5   ar
    18     5     6   ar
    19     6     7    2
    20     6     8   ar
    21     8    29    1
    22    29    30   ar
    23    29    31   ar
    24     8     9   ar
    25     9    10   ar
    26    10    32    1
    27    32    33    1
    28    33    34    1
    29    10    11   ar
    30    11    12   ar
    31    12    13    1
    32    17    18    1
    33    28    24   ar
    34    18    14    1
    35    12     1   ar
    36    11     5   ar
    37    34    32    1
    38    21    22    1
@<TRIPOS>MOLECULE
*****
 34 38 0 0 0
SMALL
GASTEIGER

@<TRIPOS>ATOM
      1 C         142.8343  141.5026  164.2453 C.ar    1  UNL1        0.0878
      2 C         143.8509  142.2805  165.0272 C.ar    1  UNL1        0.1543
      3 F         145.0645  142.8322  164.3395 F       1  UNL1       -0.2028
      4 C         143.6540  142.5066  166.4969 C.ar    1  UNL1        0.0356
      5 C         142.4405  141.9549  167.1847 C.ar    1  UNL1        0.0580
      6 C         142.2436  142.1811  168.6545 C.ar    1  UNL1        0.1996
      7 O         143.2602  142.9590  169.4364 O.2     1  UNL1       -0.2864
      8 C         141.0301  141.6295  169.3422 C.ar    1  UNL1        0.0701
      9 C         140.0135  140.8516  168.5602 C.ar    1  UNL1        0.0801
     10 N         140.2104  140.6254  167.0905 N.ar    1  UNL1       -0.3270
     11 C         141.4239  141.1771  166.4028 C.ar    1  UNL1        0.0750
     12 C         141.6208  140.9509  164.9331 C.ar    1  UNL1        0.0890
     13 CL        140.6042  140.1731  164.1511 Cl      1  UNL1       -0.0794
     14 C         143.4111  140.1925  160.6374 C.3     1  UNL1        0.0930
     15 C         143.2573  141.6641  160.3903 C.3     1  UNL1        0.0427
     16 C         143.0225  142.3339  161.7118 C.3     1  UNL1        0.0927
     17 N         143.0312  141.2764  162.7755 N.pl3   1  UNL1       -0.3033
     18 C         143.2714  139.9530  162.1116 C.3     1  UNL1        0.1104
     19 O         141.1616  138.4427  159.7006 O.2     1  UNL1       -0.2729
     20 C         142.5361  138.2696  159.1252 C.2     1  UNL1        0.2493
     21 N         143.6608  139.1446  159.5937 N.am    1  UNL1       -0.3025
     22 H         144.5629  139.0311  159.2160 H       1  UNL1        0.1495
     23 C         142.7858  137.2217  158.0814 C.3     1  UNL1        0.2338
     24 N         141.7613  136.9651  157.0162 N.ar    1  UNL1       -0.1607
     25 N         140.5262  137.7787  156.7664 N.ar    1  UNL1       -0.1486
     26 C         139.7937  137.1662  155.6096 C.ar    1  UNL1        0.1442
     27 C         140.5761  135.9740  155.1444 C.ar    1  UNL1        0.1442
     28 N         141.7922  135.8497  156.0137 N.ar    1  UNL1       -0.1486
     29 C         140.8332  141.8556  170.8119 C.2     1  UNL1        0.0774
     30 O         141.6770  141.1125  171.8048 O.co2   1  UNL1       -0.5444
     31 O         139.7924  142.8249  171.2888 O.co2   1  UNL1       -0.5444
     32 C         139.1938  139.8476  166.3086 C.3     1  UNL1        0.0857
     33 C         138.6065  138.5330  165.8880 C.3     1  UNL1        0.0245
     34 C         138.0203  139.8148  165.3749 C.3     1  UNL1        0.0245
@<TRIPOS>UNITY_ATOM_ATTR
30 1
charge -1
@<TRIPOS>BOND
     1    19    20    2
     2    20    23    1
     3    23    24    1
     4    24    25   ar
     5    25    26   ar
     6    26    27   ar
     7    27    28   ar
     8    20    21   am
     9    21    14    1
    10    14    15    1
    11    15    16    1
    12    16    17    1
    13    17     1    1
    14     1     2   ar
    15     2     3    1
    16     2     4   ar
    17     4     5   ar
    18     5     6   ar
    19     6     7    2
    20     6     8   ar
    21     8    29    1
    22    29    30   ar
    23    29    31   ar
    24     8     9   ar
    25     9    10   ar
    26    10    32    1
    27    32    33    1
    28    33    34    1
    29    10    11   ar
    30    11    12   ar
    31    12    13    1
    32    17    18    1
    33    28    24   ar
    34    18    14    1
    35    12     1   ar
    36    11     5   ar
    37    34    32    1
    38    21    22    1
@<TRIPOS>MOLECULE
*****
 34 38 0 0 0
SMALL
GASTEIGER

@<TRIPOS>ATOM
      1 C         141.0005  139.5516  164.4456 C.ar    1  UNL1        0.0878
      2 C         141.7992  138.6508  165.3403 C.ar    1  UNL1        0.1543
      3 F         142.2431  137.3056  164.8470 F       1  UNL1       -0.2028
      4 C         142.1539  139.0951  166.7283 C.ar    1  UNL1        0.0356
      5 C         141.7100  140.4403  167.2216 C.ar    1  UNL1        0.0580
      6 C         142.0648  140.8847  168.6097 C.ar    1  UNL1        0.1996
      7 O         142.8635  139.9839  169.5044 O.2     1  UNL1       -0.2864
      8 C         141.6208  142.2299  169.1030 C.ar    1  UNL1        0.0701
      9 C         140.8221  143.1307  168.2083 C.ar    1  UNL1        0.0801
     10 N         140.4673  142.6864  166.8202 N.ar    1  UNL1       -0.3270
     11 C         140.9113  141.3412  166.3269 C.ar    1  UNL1        0.0750
     12 C         140.5565  140.8968  164.9389 C.ar    1  UNL1        0.0890
     13 CL        139.7578  141.7976  164.0441 Cl      1  UNL1       -0.0794
     14 C         140.6889  138.8002  160.6503 C.3     1  UNL1        0.0930
     15 C         139.5106  138.0467  161.1927 C.3     1  UNL1        0.0427
     16 C         139.4840  138.2365  162.6804 C.3     1  UNL1        0.0927
     17 N         140.6457  139.1072  163.0575 N.pl3   1  UNL1       -0.3033
     18 C         141.3903  139.4556  161.8029 C.3     1  UNL1        0.1104
     19 O         143.0417  137.2241  159.6603 O.2     1  UNL1       -0.2729
     20 C         142.2708  138.0956  158.7136 C.2     1  UNL1        0.2493
     21 N         141.0944  138.8837  159.2086 N.am    1  UNL1       -0.3025
     22 H         140.5884  139.4556  158.5873 H       1  UNL1        0.1495
     23 C         142.6763  138.1790  157.2718 C.3     1  UNL1        0.2338
     24 N         143.5367  139.3132  156.7991 N.ar    1  UNL1       -0.1607
     25 N         144.5754  140.0294  157.6104 N.ar    1  UNL1       -0.1486
     26 C         145.1901  141.0890  156.7448 C.ar    1  UNL1        0.1442
     27 C         144.5314  141.0277  155.3987 C.ar    1  UNL1        0.1442
     28 N         143.5095  139.9302  155.4322 N.ar    1  UNL1       -0.1486
     29 C         141.9756  142.6743  170.4911 C.2     1  UNL1        0.0774
     30 O         143.0691  143.6795  170.7003 O.co2   1  UNL1       -0.5444
     31 O         141.2368  142.1134  171.6700 O.co2   1  UNL1       -0.5444
     32 C         139.6686  143.5872  165.9255 C.3     1  UNL1        0.0857
     33 C         138.3422  144.0938  165.4419 C.3     1  UNL1        0.0245
     34 C         139.6116  144.6408  164.8595 C.3     1  UNL1        0.0245
@<TRIPOS>UNITY_ATOM_ATTR
30 1
charge -1
@<TRIPOS>BOND
     1    19    20    2
     2    20    23    1
     3    23    24    1
     4    24    25   ar
     5    25    26   ar
     6    26    27   ar
     7    27    28   ar
     8    20    21   am
     9    21    14    1
    10    14    15    1
    11    15    16    1
    12    16    17    1
    13    17     1    1
    14     1     2   ar
    15     2     3    1
    16     2     4   ar
    17     4     5   ar
    18     5     6   ar
    19     6     7    2
    20     6     8   ar
    21     8    29    1
    22    29    30   ar
    23    29    31   ar
    24     8     9   ar
    25     9    10   ar
    26    10    32    1
    27    32    33    1
    28    33    34    1
    29    10    11   ar
    30    11    12   ar
    31    12    13    1
    32    17    18    1
    33    28    24   ar
    34    18    14    1
    35    12     1   ar
    36    11     5   ar
    37    34    32    1
    38    21    22    1
