@<TRIPOS>MOLECULE
*****
 40 45 0 0 0
SMALL
GASTEIGER

@<TRIPOS>ATOM
      1 C         140.3304  145.4109  158.0934 C.3     1  UNL1        0.0294
      2 C         140.1266  144.1751  157.2678 C.3     1  UNL1        0.0666
      3 S         139.0669  143.1845  157.6496 S.3     1  UNL1       -0.0756
      4 C         139.6744  141.2171  160.9399 C.ar    1  UNL1        0.1669
      5 N         138.4799  142.0443  161.3131 N.ar    1  UNL1       -0.1282
      6 N         138.1071  142.8819  160.1259 N.ar    1  UNL1       -0.1221
      7 C         139.0710  142.5725  159.0191 C.ar    1  UNL1        0.1932
      8 N         140.0396  141.5436  159.5222 N.ar    1  UNL1       -0.2884
      9 C         141.1743  140.9460  158.7441 C.3     1  UNL1        0.1340
     10 C         138.2807  139.1323  167.3400 C.3     1  UNL1        0.0521
     11 C         138.8054  139.4082  165.9621 C.ar    1  UNL1        0.0593
     12 C         138.1001  140.3895  165.0735 C.ar    1  UNL1        0.0147
     13 C         138.6249  140.6654  163.6957 C.ar    1  UNL1        0.0028
     14 C         139.8549  139.9600  163.2063 C.ar    1  UNL1        0.0206
     15 C         140.3797  140.2359  161.8284 C.ar    1  UNL1        0.0374
     16 C         141.6097  139.5304  161.3392 C.ar    1  UNL1        0.0031
     17 C         142.3150  138.5491  162.2278 C.ar    1  UNL1        0.0016
     18 C         141.7903  138.2732  163.6056 C.ar    1  UNL1        0.0191
     19 C         140.5602  138.9786  164.0949 C.ar    1  UNL1        0.0810
     20 N         140.0355  138.7027  165.4729 N.ar    1  UNL1       -0.2497
     21 C         141.5043  145.5071  159.0222 C.3     1  UNL1        0.0730
     22 N         141.4235  144.9131  160.3972 N.3     1  UNL1       -0.2720
     23 C         142.4842  143.9077  160.7352 C.3     1  UNL1        0.0768
     24 C         142.6760  143.1439  162.0119 C.3     1  UNL1        0.0434
     25 C         141.8546  143.1970  163.2658 C.ar    1  UNL1       -0.0233
     26 C         142.3927  142.2676  164.3131 C.ar    1  UNL1        0.0178
     27 C         141.7146  142.1681  165.6474 C.ar    1  UNL1        0.1179
     28 N         142.0135  141.3468  166.8664 N.ar    1  UNL1       -0.2121
     29 C         140.9822  141.6690  167.9068 C.ar    1  UNL1        0.2047
     30 O         140.0458  142.6894  167.3308 O.2     1  UNL1       -0.4388
     31 C         140.4985  142.9979  165.9344 C.ar    1  UNL1        0.1600
     32 C         139.9604  143.9273  164.8871 C.ar    1  UNL1        0.0101
     33 C         138.7443  144.7570  165.1741 C.3     1  UNL1        0.0339
     34 C         140.6384  144.0268  163.5528 C.ar    1  UNL1       -0.0256
     35 C         139.9433  145.0086  162.6568 C.3     1  UNL1        0.0431
     36 C         140.2928  145.4030  161.2523 C.3     1  UNL1        0.0768
     37 C         140.9014  141.0749  169.2818 C.3     1  UNL1        0.0688
     38 C         141.6803  139.8821  168.8122 C.3     1  UNL1        0.0092
     39 C         140.1225  142.2677  169.7514 C.3     1  UNL1        0.0092
     40 C         140.8207  140.4809  170.6567 C.3     1  UNL1        0.0092
@<TRIPOS>BOND
     1    10    11    1
     2    11    12   ar
     3    12    13   ar
     4    13    14   ar
     5    14    15   ar
     6    15     4    1
     7     4     5   ar
     8     5     6   ar
     9     6     7   ar
    10     7     3    1
    11     3     2    1
    12     2     1    1
    13     1    21    1
    14    21    22    1
    15    22    23    1
    16    23    24    1
    17    24    25    1
    18    25    26   ar
    19    26    27   ar
    20    27    28   ar
    21    28    29   ar
    22    29    37    1
    23    37    38    1
    24    37    39    1
    25    37    40    1
    26    29    30   ar
    27    30    31   ar
    28    31    32   ar
    29    32    33    1
    30    32    34   ar
    31    34    35    1
    32    35    36    1
    33     7     8   ar
    34     8     9    1
    35    15    16   ar
    36    16    17   ar
    37    17    18   ar
    38    18    19   ar
    39    19    20   ar
    40    20    11   ar
    41    19    14   ar
    42     8     4   ar
    43    36    22    1
    44    34    25   ar
    45    31    27   ar
@<TRIPOS>MOLECULE
*****
 40 45 0 0 0
SMALL
GASTEIGER

@<TRIPOS>ATOM
      1 C         140.2722  145.4059  158.1639 C.3     1  UNL1        0.0294
      2 C         140.0823  144.2562  157.2193 C.3     1  UNL1        0.0666
      3 S         139.0721  143.1912  157.5276 S.3     1  UNL1       -0.0756
      4 C         139.5240  141.0096  160.7060 C.ar    1  UNL1        0.1669
      5 N         138.5623  142.0486  161.2019 N.ar    1  UNL1       -0.1282
      6 N         138.2760  142.9922  160.0716 N.ar    1  UNL1       -0.1221
      7 C         139.0607  142.5365  158.8772 C.ar    1  UNL1        0.1932
      8 N         139.8320  141.3113  159.2693 N.ar    1  UNL1       -0.2884
      9 C         140.7501  140.5254  158.3807 C.3     1  UNL1        0.1340
     10 C         138.0954  138.8668  167.0792 C.3     1  UNL1        0.0521
     11 C         138.5915  139.1175  165.6860 C.ar    1  UNL1        0.0593
     12 C         138.0355  140.2578  164.8856 C.ar    1  UNL1        0.0147
     13 C         138.5317  140.5084  163.4924 C.ar    1  UNL1        0.0028
     14 C         139.5839  139.6188  162.8996 C.ar    1  UNL1        0.0206
     15 C         140.0800  139.8694  161.5063 C.ar    1  UNL1        0.0374
     16 C         141.1322  138.9797  160.9136 C.ar    1  UNL1        0.0031
     17 C         141.6882  137.8394  161.7140 C.ar    1  UNL1        0.0016
     18 C         141.1921  137.5888  163.1071 C.ar    1  UNL1        0.0191
     19 C         140.1399  138.4785  163.6999 C.ar    1  UNL1        0.0810
     20 N         139.6437  138.2278  165.0932 N.ar    1  UNL1       -0.2497
     21 C         141.4646  145.4404  159.0732 C.3     1  UNL1        0.0730
     22 N         141.4088  144.7610  160.4094 N.3     1  UNL1       -0.2720
     23 C         140.4605  145.3606  161.4052 C.3     1  UNL1        0.0768
     24 C         140.1779  144.9192  162.8107 C.3     1  UNL1        0.0434
     25 C         140.7736  143.7693  163.5674 C.ar    1  UNL1       -0.0233
     26 C         140.2125  143.6772  164.9555 C.ar    1  UNL1        0.0178
     27 C         140.6769  142.5927  165.8818 C.ar    1  UNL1        0.1179
     28 N         140.3069  142.2533  167.2953 N.ar    1  UNL1       -0.2121
     29 C         141.1037  141.0511  167.7071 C.ar    1  UNL1        0.2047
     30 O         141.9661  140.6474  166.5482 O.2     1  UNL1       -0.4388
     31 C         141.7024  141.6001  165.4201 C.ar    1  UNL1        0.1600
     32 C         142.2635  141.6922  164.0320 C.ar    1  UNL1        0.0101
     33 C         143.2890  140.6997  163.5703 C.3     1  UNL1        0.0339
     34 C         141.7991  142.7767  163.1057 C.ar    1  UNL1       -0.0256
     35 C         142.4822  142.6890  161.7732 C.3     1  UNL1        0.0431
     36 C         142.3084  143.5721  160.5732 C.3     1  UNL1        0.0768
     37 C         141.0478  140.3718  169.0434 C.3     1  UNL1        0.0688
     38 C         142.2604  139.5652  168.6841 C.3     1  UNL1        0.0092
     39 C         139.8352  141.1783  169.4027 C.3     1  UNL1        0.0092
     40 C         140.9920  139.6925  170.3795 C.3     1  UNL1        0.0092
@<TRIPOS>BOND
     1    10    11    1
     2    11    12   ar
     3    12    13   ar
     4    13    14   ar
     5    14    15   ar
     6    15     4    1
     7     4     5   ar
     8     5     6   ar
     9     6     7   ar
    10     7     3    1
    11     3     2    1
    12     2     1    1
    13     1    21    1
    14    21    22    1
    15    22    23    1
    16    23    24    1
    17    24    25    1
    18    25    26   ar
    19    26    27   ar
    20    27    28   ar
    21    28    29   ar
    22    29    37    1
    23    37    38    1
    24    37    39    1
    25    37    40    1
    26    29    30   ar
    27    30    31   ar
    28    31    32   ar
    29    32    33    1
    30    32    34   ar
    31    34    35    1
    32    35    36    1
    33     7     8   ar
    34     8     9    1
    35    15    16   ar
    36    16    17   ar
    37    17    18   ar
    38    18    19   ar
    39    19    20   ar
    40    20    11   ar
    41    19    14   ar
    42     8     4   ar
    43    36    22    1
    44    34    25   ar
    45    31    27   ar
@<TRIPOS>MOLECULE
*****
 40 45 0 0 0
SMALL
GASTEIGER

@<TRIPOS>ATOM
      1 C         142.6449  142.6751  157.9368 C.3     1  UNL1        0.0294
      2 C         142.8833  141.7401  156.7883 C.3     1  UNL1        0.0666
      3 S         142.2946  140.3606  156.8095 S.3     1  UNL1       -0.0756
      4 C         141.5235  138.6888  160.2266 C.ar    1  UNL1        0.1669
      5 N         142.8560  138.0817  159.9009 N.ar    1  UNL1       -0.1282
      6 N         143.3070  138.6341  158.5813 N.ar    1  UNL1       -0.1221
      7 C         142.2533  139.5826  158.0913 C.ar    1  UNL1        0.1932
      8 N         141.1511  139.6164  159.1081 N.ar    1  UNL1       -0.2884
      9 C         139.8965  140.4342  159.0217 C.3     1  UNL1        0.1340
     10 C         143.2474  138.7468  166.8806 C.3     1  UNL1        0.0521
     11 C         142.6123  138.6642  165.5241 C.ar    1  UNL1        0.0593
     12 C         143.4289  138.9368  164.2958 C.ar    1  UNL1        0.0147
     13 C         142.7937  138.8541  162.9394 C.ar    1  UNL1        0.0028
     14 C         141.3421  138.4988  162.8113 C.ar    1  UNL1        0.0206
     15 C         140.7070  138.4162  161.4549 C.ar    1  UNL1        0.0374
     16 C         139.2553  138.0609  161.3269 C.ar    1  UNL1        0.0031
     17 C         138.4387  137.7882  162.5553 C.ar    1  UNL1        0.0016
     18 C         139.0738  137.8709  163.9116 C.ar    1  UNL1        0.0191
     19 C         140.5255  138.2262  164.0397 C.ar    1  UNL1        0.0810
     20 N         141.1606  138.3089  165.3961 N.ar    1  UNL1       -0.2497
     21 C         143.7306  142.9198  158.9424 C.3     1  UNL1        0.0730
     22 N         143.4409  142.7812  160.4077 N.3     1  UNL1       -0.2720
     23 C         144.6186  142.9451  161.3222 C.3     1  UNL1        0.0768
     24 C         144.6581  142.8653  162.8196 C.3     1  UNL1        0.0434
     25 C         143.5298  142.6019  163.7722 C.ar    1  UNL1       -0.0233
     26 C         144.0023  142.6062  165.1959 C.ar    1  UNL1        0.0178
     27 C         143.0282  142.3618  166.3101 C.ar    1  UNL1        0.1179
     28 N         143.1997  142.3068  167.7992 N.ar    1  UNL1       -0.2121
     29 C         141.8592  142.0241  168.4101 C.ar    1  UNL1        0.2047
     30 O         140.8593  141.9044  167.2985 O.2     1  UNL1       -0.4388
     31 C         141.5817  142.1131  166.0007 C.ar    1  UNL1        0.1600
     32 C         141.1092  142.1088  164.5770 C.ar    1  UNL1        0.0101
     33 C         139.6628  141.8601  164.2676 C.3     1  UNL1        0.0339
     34 C         142.0833  142.3532  163.4628 C.ar    1  UNL1       -0.0256
     35 C         141.4078  142.3065  162.1243 C.3     1  UNL1        0.0431
     36 C         142.0121  142.4970  160.7647 C.3     1  UNL1        0.0768
     37 C         141.5697  141.8855  169.8754 C.3     1  UNL1        0.0688
     38 C         140.3381  142.7260  169.7115 C.3     1  UNL1        0.0092
     39 C         142.8012  141.0451  170.0393 C.3     1  UNL1        0.0092
     40 C         141.2801  141.7469  171.3405 C.3     1  UNL1        0.0092
@<TRIPOS>BOND
     1    10    11    1
     2    11    12   ar
     3    12    13   ar
     4    13    14   ar
     5    14    15   ar
     6    15     4    1
     7     4     5   ar
     8     5     6   ar
     9     6     7   ar
    10     7     3    1
    11     3     2    1
    12     2     1    1
    13     1    21    1
    14    21    22    1
    15    22    23    1
    16    23    24    1
    17    24    25    1
    18    25    26   ar
    19    26    27   ar
    20    27    28   ar
    21    28    29   ar
    22    29    37    1
    23    37    38    1
    24    37    39    1
    25    37    40    1
    26    29    30   ar
    27    30    31   ar
    28    31    32   ar
    29    32    33    1
    30    32    34   ar
    31    34    35    1
    32    35    36    1
    33     7     8   ar
    34     8     9    1
    35    15    16   ar
    36    16    17   ar
    37    17    18   ar
    38    18    19   ar
    39    19    20   ar
    40    20    11   ar
    41    19    14   ar
    42     8     4   ar
    43    36    22    1
    44    34    25   ar
    45    31    27   ar
@<TRIPOS>MOLECULE
*****
 40 45 0 0 0
SMALL
GASTEIGER

@<TRIPOS>ATOM
      1 C         141.0410  145.0523  158.5446 C.3     1  UNL1        0.0294
      2 C         140.3027  144.1484  157.6022 C.3     1  UNL1        0.0666
      3 S         140.5641  142.6715  157.6201 S.3     1  UNL1       -0.0756
      4 C         140.7237  140.9956  161.1174 C.ar    1  UNL1        0.1669
      5 N         142.1497  140.8684  160.6696 N.ar    1  UNL1       -0.1282
      6 N         142.2634  141.4807  159.3051 N.ar    1  UNL1       -0.1221
      7 C         140.9078  141.9863  158.9095 C.ar    1  UNL1        0.1932
      8 N         139.9562  141.6865  160.0295 N.ar    1  UNL1       -0.2884
      9 C         138.4938  142.0192  160.0569 C.3     1  UNL1        0.1340
     10 C         143.7926  138.0622  166.5237 C.3     1  UNL1        0.0521
     11 C         142.8854  138.6757  165.4987 C.ar    1  UNL1        0.0593
     12 C         143.4454  139.1553  164.1924 C.ar    1  UNL1        0.0147
     13 C         142.5382  139.7687  163.1674 C.ar    1  UNL1        0.0028
     14 C         141.0709  139.9026  163.4486 C.ar    1  UNL1        0.0206
     15 C         140.1637  140.5160  162.4236 C.ar    1  UNL1        0.0374
     16 C         138.6964  140.6498  162.7049 C.ar    1  UNL1        0.0031
     17 C         138.1363  140.1703  164.0112 C.ar    1  UNL1        0.0016
     18 C         139.0435  139.5569  165.0361 C.ar    1  UNL1        0.0191
     19 C         140.5108  139.4230  164.7549 C.ar    1  UNL1        0.0810
     20 N         141.4180  138.8095  165.7800 N.ar    1  UNL1       -0.2497
     21 C         140.3651  145.5552  159.7856 C.3     1  UNL1        0.0730
     22 N         140.6635  144.9208  161.1117 N.3     1  UNL1       -0.2720
     23 C         139.4914  144.7579  162.0336 C.3     1  UNL1        0.0768
     24 C         139.4608  144.1671  163.4121 C.3     1  UNL1        0.0434
     25 C         140.5946  143.5935  164.2090 C.ar    1  UNL1       -0.0233
     26 C         140.1306  143.1064  165.5498 C.ar    1  UNL1        0.0178
     27 C         141.1112  142.4947  166.5060 C.ar    1  UNL1        0.1179
     28 N         140.9486  141.9299  167.8860 N.ar    1  UNL1       -0.2121
     29 C         142.2925  141.4562  168.3544 C.ar    1  UNL1        0.2047
     30 O         143.2858  141.7282  167.2638 O.2     1  UNL1       -0.4388
     31 C         142.5557  142.3700  166.1215 C.ar    1  UNL1        0.1600
     32 C         143.0197  142.8571  164.7807 C.ar    1  UNL1        0.0101
     33 C         144.4641  142.7324  164.3962 C.3     1  UNL1        0.0339
     34 C         142.0391  143.4688  163.8245 C.ar    1  UNL1       -0.0256
     35 C         142.7065  143.8870  162.5480 C.3     1  UNL1        0.0431
     36 C         142.0942  144.5332  161.3407 C.3     1  UNL1        0.0768
     37 C         142.5908  140.8218  169.6806 C.3     1  UNL1        0.0688
     38 C         141.5815  139.7496  169.3946 C.3     1  UNL1        0.0092
     39 C         143.6000  141.8939  169.9665 C.3     1  UNL1        0.0092
     40 C         142.8889  140.1874  171.0066 C.3     1  UNL1        0.0092
@<TRIPOS>BOND
     1    10    11    1
     2    11    12   ar
     3    12    13   ar
     4    13    14   ar
     5    14    15   ar
     6    15     4    1
     7     4     5   ar
     8     5     6   ar
     9     6     7   ar
    10     7     3    1
    11     3     2    1
    12     2     1    1
    13     1    21    1
    14    21    22    1
    15    22    23    1
    16    23    24    1
    17    24    25    1
    18    25    26   ar
    19    26    27   ar
    20    27    28   ar
    21    28    29   ar
    22    29    37    1
    23    37    38    1
    24    37    39    1
    25    37    40    1
    26    29    30   ar
    27    30    31   ar
    28    31    32   ar
    29    32    33    1
    30    32    34   ar
    31    34    35    1
    32    35    36    1
    33     7     8   ar
    34     8     9    1
    35    15    16   ar
    36    16    17   ar
    37    17    18   ar
    38    18    19   ar
    39    19    20   ar
    40    20    11   ar
    41    19    14   ar
    42     8     4   ar
    43    36    22    1
    44    34    25   ar
    45    31    27   ar
@<TRIPOS>MOLECULE
*****
 40 45 0 0 0
SMALL
GASTEIGER

@<TRIPOS>ATOM
      1 C         140.0720  138.0080  158.1890 C.3     1  UNL1        0.0294
      2 C         141.1515  138.2837  157.1846 C.3     1  UNL1        0.0666
      3 S         142.5927  138.2140  157.5943 S.3     1  UNL1       -0.0756
      4 C         143.5663  139.3760  161.1675 C.ar    1  UNL1        0.1669
      5 N         143.5406  137.8865  161.3439 N.ar    1  UNL1       -0.1282
      6 N         143.1728  137.2701  160.0269 N.ar    1  UNL1       -0.1221
      7 C         142.9711  138.3784  159.0365 C.ar    1  UNL1        0.1932
      8 N         143.2144  139.6798  159.7414 N.ar    1  UNL1       -0.2884
      9 C         143.1218  141.0456  159.1279 C.3     1  UNL1        0.1340
     10 C         142.6734  139.1725  167.9801 C.3     1  UNL1        0.0521
     11 C         142.9770  139.4754  166.5427 C.ar    1  UNL1        0.0593
     12 C         142.6557  138.4671  165.4797 C.ar    1  UNL1        0.0147
     13 C         142.9593  138.7700  164.0423 C.ar    1  UNL1        0.0028
     14 C         143.5840  140.0813  163.6679 C.ar    1  UNL1        0.0206
     15 C         143.8875  140.3843  162.2304 C.ar    1  UNL1        0.0374
     16 C         144.5123  141.6956  161.8562 C.ar    1  UNL1        0.0031
     17 C         144.8336  142.7039  162.9192 C.ar    1  UNL1        0.0016
     18 C         144.5301  142.4010  164.3565 C.ar    1  UNL1        0.0191
     19 C         143.9053  141.0897  164.7309 C.ar    1  UNL1        0.0810
     20 N         143.6018  140.7868  166.1683 N.ar    1  UNL1       -0.2497
     21 C         139.2545  139.1381  158.7407 C.3     1  UNL1        0.0730
     22 N         139.3711  139.5110  160.1889 N.3     1  UNL1       -0.2720
     23 C         139.9521  140.8657  160.4673 C.3     1  UNL1        0.0768
     24 C         140.1968  141.5239  161.7929 C.3     1  UNL1        0.0434
     25 C         139.9210  140.9901  163.1672 C.ar    1  UNL1       -0.0233
     26 C         140.3163  141.9750  164.2272 C.ar    1  UNL1        0.0178
     27 C         140.1230  141.6361  165.6756 C.ar    1  UNL1        0.1179
     28 N         140.4158  142.3998  166.9329 N.ar    1  UNL1       -0.2121
     29 C         140.0080  141.5480  168.0983 C.ar    1  UNL1        0.2047
     30 O         139.4632  140.2578  167.5612 O.2     1  UNL1       -0.4388
     31 C         139.5342  140.3122  166.0640 C.ar    1  UNL1        0.1600
     32 C         139.1389  139.3273  165.0039 C.ar    1  UNL1        0.0101
     33 C         138.5502  138.0035  165.3923 C.3     1  UNL1        0.0339
     34 C         139.3322  139.6662  163.5556 C.ar    1  UNL1       -0.0256
     35 C         138.8740  138.5492  162.6655 C.3     1  UNL1        0.0431
     36 C         138.8913  138.4802  161.1671 C.3     1  UNL1        0.0768
     37 C         140.1247  141.9211  169.5465 C.3     1  UNL1        0.0688
     38 C         140.9698  143.1030  169.1740 C.3     1  UNL1        0.0092
     39 C         139.2796  140.7392  169.9191 C.3     1  UNL1        0.0092
     40 C         140.2414  142.2941  170.9946 C.3     1  UNL1        0.0092
@<TRIPOS>BOND
     1    10    11    1
     2    11    12   ar
     3    12    13   ar
     4    13    14   ar
     5    14    15   ar
     6    15     4    1
     7     4     5   ar
     8     5     6   ar
     9     6     7   ar
    10     7     3    1
    11     3     2    1
    12     2     1    1
    13     1    21    1
    14    21    22    1
    15    22    23    1
    16    23    24    1
    17    24    25    1
    18    25    26   ar
    19    26    27   ar
    20    27    28   ar
    21    28    29   ar
    22    29    37    1
    23    37    38    1
    24    37    39    1
    25    37    40    1
    26    29    30   ar
    27    30    31   ar
    28    31    32   ar
    29    32    33    1
    30    32    34   ar
    31    34    35    1
    32    35    36    1
    33     7     8   ar
    34     8     9    1
    35    15    16   ar
    36    16    17   ar
    37    17    18   ar
    38    18    19   ar
    39    19    20   ar
    40    20    11   ar
    41    19    14   ar
    42     8     4   ar
    43    36    22    1
    44    34    25   ar
    45    31    27   ar
@<TRIPOS>MOLECULE
*****
 40 45 0 0 0
SMALL
GASTEIGER

@<TRIPOS>ATOM
      1 C         141.6063  137.9946  157.5927 C.3     1  UNL1        0.0294
      2 C         142.0351  138.7933  156.3976 C.3     1  UNL1        0.0666
      3 S         141.9545  140.2908  156.4282 S.3     1  UNL1       -0.0756
      4 C         141.7913  142.1712  159.8198 C.ar    1  UNL1        0.1669
      5 N         140.3330  141.9960  159.5150 N.ar    1  UNL1       -0.1282
      6 N         140.2168  141.2703  158.2075 N.ar    1  UNL1       -0.1221
      7 C         141.6031  140.9970  157.7041 C.ar    1  UNL1        0.1932
      8 N         142.5762  141.5538  158.7006 N.ar    1  UNL1       -0.2884
      9 C         144.0717  141.5022  158.5962 C.3     1  UNL1        0.1340
     10 C         138.7217  144.8017  165.3794 C.3     1  UNL1        0.0521
     11 C         139.6323  144.3126  164.2923 C.ar    1  UNL1        0.0593
     12 C         139.0595  143.6384  163.0809 C.ar    1  UNL1        0.0147
     13 C         139.9702  143.1493  161.9939 C.ar    1  UNL1        0.0028
     14 C         141.4535  143.3345  162.1182 C.ar    1  UNL1        0.0206
     15 C         142.3641  142.8454  161.0311 C.ar    1  UNL1        0.0374
     16 C         143.8473  143.0307  161.1554 C.ar    1  UNL1        0.0031
     17 C         144.4201  143.7049  162.3668 C.ar    1  UNL1        0.0016
     18 C         143.5096  144.1940  163.4538 C.ar    1  UNL1        0.0191
     19 C         142.0263  144.0088  163.3295 C.ar    1  UNL1        0.0810
     20 N         141.1157  144.4979  164.4166 N.ar    1  UNL1       -0.2497
     21 C         142.5978  137.6636  158.6685 C.3     1  UNL1        0.0730
     22 N         142.4969  138.3253  160.0108 N.3     1  UNL1       -0.2720
     23 C         141.1056  138.5281  160.5335 C.3     1  UNL1        0.0768
     24 C         140.6744  139.1525  161.8275 C.3     1  UNL1        0.0434
     25 C         141.5280  139.7282  162.9182 C.ar    1  UNL1       -0.0233
     26 C         140.6927  140.2546  164.0476 C.ar    1  UNL1        0.0178
     27 C         141.3531  140.8745  165.2432 C.ar    1  UNL1        0.1179
     28 N         140.7950  141.4749  166.4994 N.ar    1  UNL1       -0.2121
     29 C         141.9457  141.9396  167.3420 C.ar    1  UNL1        0.2047
     30 O         143.2149  141.6264  166.6067 O.2     1  UNL1       -0.4388
     31 C         142.8487  140.9681  165.3096 C.ar    1  UNL1        0.1600
     32 C         143.6840  140.4418  164.1802 C.ar    1  UNL1        0.0101
     33 C         145.1795  140.5353  164.2465 C.3     1  UNL1        0.0339
     34 C         143.0236  139.8218  162.9846 C.ar    1  UNL1       -0.0256
     35 C         144.0350  139.3628  161.9764 C.3     1  UNL1        0.0431
     36 C         143.8005  138.6968  160.6530 C.3     1  UNL1        0.0768
     37 C         141.8447  142.6014  168.6844 C.3     1  UNL1        0.0688
     38 C         140.4166  142.9613  168.3995 C.3     1  UNL1        0.0092
     39 C         143.2727  142.2416  168.9693 C.3     1  UNL1        0.0092
     40 C         141.7436  143.2632  170.0266 C.3     1  UNL1        0.0092
@<TRIPOS>BOND
     1    10    11    1
     2    11    12   ar
     3    12    13   ar
     4    13    14   ar
     5    14    15   ar
     6    15     4    1
     7     4     5   ar
     8     5     6   ar
     9     6     7   ar
    10     7     3    1
    11     3     2    1
    12     2     1    1
    13     1    21    1
    14    21    22    1
    15    22    23    1
    16    23    24    1
    17    24    25    1
    18    25    26   ar
    19    26    27   ar
    20    27    28   ar
    21    28    29   ar
    22    29    37    1
    23    37    38    1
    24    37    39    1
    25    37    40    1
    26    29    30   ar
    27    30    31   ar
    28    31    32   ar
    29    32    33    1
    30    32    34   ar
    31    34    35    1
    32    35    36    1
    33     7     8   ar
    34     8     9    1
    35    15    16   ar
    36    16    17   ar
    37    17    18   ar
    38    18    19   ar
    39    19    20   ar
    40    20    11   ar
    41    19    14   ar
    42     8     4   ar
    43    36    22    1
    44    34    25   ar
    45    31    27   ar
@<TRIPOS>MOLECULE
*****
 40 45 0 0 0
SMALL
GASTEIGER

@<TRIPOS>ATOM
      1 C         139.5748  140.3619  168.2477 C.3     1  UNL1        0.0294
      2 C         140.5450  139.8505  169.2710 C.3     1  UNL1        0.0666
      3 S         142.0116  139.8085  168.9589 S.3     1  UNL1       -0.0756
      4 C         143.4397  142.0277  166.1126 C.ar    1  UNL1        0.1669
      5 N         143.6731  142.9035  167.3079 N.ar    1  UNL1       -0.1282
      6 N         143.1665  142.1787  168.5195 N.ar    1  UNL1       -0.1221
      7 C         142.6200  140.8551  168.0732 C.ar    1  UNL1        0.1932
      8 N         142.7888  140.7617  166.5857 N.ar    1  UNL1       -0.2884
      9 C         142.3788  139.6054  165.7226 C.3     1  UNL1        0.1340
     10 C         140.1903  145.8903  161.4465 C.3     1  UNL1        0.0521
     11 C         141.0914  145.0076  162.2583 C.ar    1  UNL1        0.0593
     12 C         140.7363  144.6757  163.6774 C.ar    1  UNL1        0.0147
     13 C         141.6374  143.7930  164.4891 C.ar    1  UNL1        0.0028
     14 C         142.8936  143.2423  163.8818 C.ar    1  UNL1        0.0206
     15 C         143.7947  142.3596  164.6936 C.ar    1  UNL1        0.0374
     16 C         145.0508  141.8090  164.0863 C.ar    1  UNL1        0.0031
     17 C         145.4059  142.1409  162.6672 C.ar    1  UNL1        0.0016
     18 C         144.5048  143.0235  161.8555 C.ar    1  UNL1        0.0191
     19 C         143.2487  143.5742  162.4627 C.ar    1  UNL1        0.0810
     20 N         142.3476  144.4569  161.6509 N.ar    1  UNL1       -0.2497
     21 C         138.7740  139.3964  167.4251 C.3     1  UNL1        0.0730
     22 N         138.7998  139.4853  165.9280 N.3     1  UNL1       -0.2720
     23 C         139.0854  138.2025  165.2048 C.3     1  UNL1        0.0768
     24 C         139.1784  137.9628  163.7269 C.3     1  UNL1        0.0434
     25 C         139.0086  138.9465  162.6075 C.ar    1  UNL1       -0.0233
     26 C         139.1832  138.2902  161.2700 C.ar    1  UNL1        0.0178
     27 C         139.0533  139.1003  160.0143 C.ar    1  UNL1        0.1179
     28 N         139.1719  138.7317  158.5652 N.ar    1  UNL1       -0.2121
     29 C         138.9406  139.9703  157.7513 C.ar    1  UNL1        0.2047
     30 O         138.6790  141.1044  158.6974 O.2     1  UNL1       -0.4388
     31 C         138.7486  140.5668  160.0959 C.ar    1  UNL1        0.1600
     32 C         138.5740  141.2231  161.4334 C.ar    1  UNL1        0.0101
     33 C         138.2694  142.6896  161.5152 C.3     1  UNL1        0.0339
     34 C         138.7040  140.4130  162.6891 C.ar    1  UNL1       -0.0256
     35 C         138.4939  141.2579  163.9106 C.3     1  UNL1        0.0431
     36 C         138.5365  140.8450  165.3520 C.3     1  UNL1        0.0768
     37 C         138.9664  140.0590  156.2541 C.3     1  UNL1        0.0688
     38 C         138.5643  141.5020  156.3327 C.3     1  UNL1        0.0092
     39 C         139.3685  138.6161  156.1755 C.3     1  UNL1        0.0092
     40 C         138.9922  140.1478  154.7570 C.3     1  UNL1        0.0092
@<TRIPOS>BOND
     1    10    11    1
     2    11    12   ar
     3    12    13   ar
     4    13    14   ar
     5    14    15   ar
     6    15     4    1
     7     4     5   ar
     8     5     6   ar
     9     6     7   ar
    10     7     3    1
    11     3     2    1
    12     2     1    1
    13     1    21    1
    14    21    22    1
    15    22    23    1
    16    23    24    1
    17    24    25    1
    18    25    26   ar
    19    26    27   ar
    20    27    28   ar
    21    28    29   ar
    22    29    37    1
    23    37    38    1
    24    37    39    1
    25    37    40    1
    26    29    30   ar
    27    30    31   ar
    28    31    32   ar
    29    32    33    1
    30    32    34   ar
    31    34    35    1
    32    35    36    1
    33     7     8   ar
    34     8     9    1
    35    15    16   ar
    36    16    17   ar
    37    17    18   ar
    38    18    19   ar
    39    19    20   ar
    40    20    11   ar
    41    19    14   ar
    42     8     4   ar
    43    36    22    1
    44    34    25   ar
    45    31    27   ar
@<TRIPOS>MOLECULE
*****
 40 45 0 0 0
SMALL
GASTEIGER

@<TRIPOS>ATOM
      1 C         143.8224  142.7437  157.6365 C.3     1  UNL1        0.0294
      2 C         142.6086  142.5989  156.7670 C.3     1  UNL1        0.0666
      3 S         141.2542  142.9548  157.3046 S.3     1  UNL1       -0.0756
      4 C         140.3734  142.3803  161.0409 C.ar    1  UNL1        0.1669
      5 N         139.9980  141.0547  160.4474 N.ar    1  UNL1       -0.1282
      6 N         140.2823  141.1087  158.9756 N.ar    1  UNL1       -0.1221
      7 C         140.8334  142.4675  158.6594 C.ar    1  UNL1        0.1932
      8 N         140.8897  143.2533  159.9358 N.ar    1  UNL1       -0.2884
      9 C         141.3768  144.6645  160.0815 C.3     1  UNL1        0.1340
     10 C         138.2269  138.7850  166.4922 C.3     1  UNL1        0.0521
     11 C         138.7336  139.7800  165.4905 C.ar    1  UNL1        0.0593
     12 C         138.8534  139.3952  164.0457 C.ar    1  UNL1        0.0147
     13 C         139.3601  140.3902  163.0441 C.ar    1  UNL1        0.0028
     14 C         139.7469  141.7700  163.4873 C.ar    1  UNL1        0.0206
     15 C         140.2536  142.7650  162.4856 C.ar    1  UNL1        0.0374
     16 C         140.6404  144.1448  162.9289 C.ar    1  UNL1        0.0031
     17 C         140.5206  144.5296  164.3738 C.ar    1  UNL1        0.0016
     18 C         140.0139  143.5347  165.3753 C.ar    1  UNL1        0.0191
     19 C         139.6271  142.1549  164.9321 C.ar    1  UNL1        0.0810
     20 N         139.1204  141.1599  165.9338 N.ar    1  UNL1       -0.2497
     21 C         144.3302  141.5680  158.4173 C.3     1  UNL1        0.0730
     22 N         144.0630  141.4740  159.8903 N.3     1  UNL1       -0.2720
     23 C         143.5216  140.1601  160.3708 C.3     1  UNL1        0.0768
     24 C         143.1560  139.7540  161.7678 C.3     1  UNL1        0.0434
     25 C         143.2414  140.5613  163.0290 C.ar    1  UNL1       -0.0233
     26 C         142.7739  139.7733  164.2168 C.ar    1  UNL1        0.0178
     27 C         142.7785  140.3982  165.5804 C.ar    1  UNL1        0.1179
     28 N         142.3784  139.8721  166.9269 N.ar    1  UNL1       -0.2121
     29 C         142.6033  140.9598  167.9351 C.ar    1  UNL1        0.2047
     30 O         143.1423  142.1581  167.2116 O.2     1  UNL1       -0.4388
     31 C         143.2506  141.8111  165.7564 C.ar    1  UNL1        0.1600
     32 C         143.7181  142.5990  164.5687 C.ar    1  UNL1        0.0101
     33 C         144.1902  144.0118  164.7446 C.3     1  UNL1        0.0339
     34 C         143.7135  141.9741  163.2051 C.ar    1  UNL1       -0.0256
     35 C         144.2168  142.9286  162.1631 C.3     1  UNL1        0.0431
     36 C         144.3723  142.7059  160.6879 C.3     1  UNL1        0.0768
     37 C         142.3360  140.8656  169.4081 C.3     1  UNL1        0.0688
     38 C         141.1919  139.9331  169.1408 C.3     1  UNL1        0.0092
     39 C         143.4800  141.7982  169.6754 C.3     1  UNL1        0.0092
     40 C         142.0686  140.7714  170.8810 C.3     1  UNL1        0.0092
@<TRIPOS>BOND
     1    10    11    1
     2    11    12   ar
     3    12    13   ar
     4    13    14   ar
     5    14    15   ar
     6    15     4    1
     7     4     5   ar
     8     5     6   ar
     9     6     7   ar
    10     7     3    1
    11     3     2    1
    12     2     1    1
    13     1    21    1
    14    21    22    1
    15    22    23    1
    16    23    24    1
    17    24    25    1
    18    25    26   ar
    19    26    27   ar
    20    27    28   ar
    21    28    29   ar
    22    29    37    1
    23    37    38    1
    24    37    39    1
    25    37    40    1
    26    29    30   ar
    27    30    31   ar
    28    31    32   ar
    29    32    33    1
    30    32    34   ar
    31    34    35    1
    32    35    36    1
    33     7     8   ar
    34     8     9    1
    35    15    16   ar
    36    16    17   ar
    37    17    18   ar
    38    18    19   ar
    39    19    20   ar
    40    20    11   ar
    41    19    14   ar
    42     8     4   ar
    43    36    22    1
    44    34    25   ar
    45    31    27   ar
@<TRIPOS>MOLECULE
*****
 40 45 0 0 0
SMALL
GASTEIGER

@<TRIPOS>ATOM
      1 C         138.4632  142.5344  157.9487 C.3     1  UNL1        0.0294
      2 C         139.5439  142.1988  156.9640 C.3     1  UNL1        0.0666
      3 S         140.9632  142.5948  157.2443 S.3     1  UNL1       -0.0756
      4 C         142.5448  142.2567  160.7728 C.ar    1  UNL1        0.1669
      5 N         142.6936  140.8575  160.2531 N.ar    1  UNL1       -0.1282
      6 N         142.1193  140.8139  158.8681 N.ar    1  UNL1       -0.1221
      7 C         141.6155  142.1861  158.5318 C.ar    1  UNL1        0.1932
      8 N         141.8784  143.0778  159.7089 N.ar    1  UNL1       -0.2884
      9 C         141.5353  144.5349  159.8053 C.3     1  UNL1        0.1340
     10 C         142.9263  139.0378  166.8344 C.3     1  UNL1        0.0521
     11 C         142.9410  139.9654  165.6557 C.ar    1  UNL1        0.0593
     12 C         142.5008  139.4737  164.3087 C.ar    1  UNL1        0.0147
     13 C         142.5155  140.4014  163.1301 C.ar    1  UNL1        0.0028
     14 C         142.9703  141.8208  163.2984 C.ar    1  UNL1        0.0206
     15 C         142.9849  142.7485  162.1197 C.ar    1  UNL1        0.0374
     16 C         143.4398  144.1679  162.2881 C.ar    1  UNL1        0.0031
     17 C         143.8800  144.6596  163.6351 C.ar    1  UNL1        0.0016
     18 C         143.8653  143.7320  164.8137 C.ar    1  UNL1        0.0191
     19 C         143.4105  142.3126  164.6454 C.ar    1  UNL1        0.0810
     20 N         143.3958  141.3849  165.8241 N.ar    1  UNL1       -0.2497
     21 C         137.8730  141.4578  158.8103 C.3     1  UNL1        0.0730
     22 N         138.2122  141.3952  160.2701 N.3     1  UNL1       -0.2720
     23 C         137.9631  140.0764  160.9402 C.3     1  UNL1        0.0768
     24 C         138.1960  139.6964  162.3725 C.3     1  UNL1        0.0434
     25 C         138.7354  140.5412  163.4883 C.ar    1  UNL1       -0.0233
     26 C         138.8093  139.7701  164.7729 C.ar    1  UNL1        0.0178
     27 C         139.3230  140.4326  166.0168 C.ar    1  UNL1        0.1179
     28 N         139.5097  139.9301  167.4177 N.ar    1  UNL1       -0.2121
     29 C         140.0650  141.0530  168.2428 C.ar    1  UNL1        0.2047
     30 O         140.2214  142.2495  167.3519 O.2     1  UNL1       -0.4388
     31 C         139.7629  141.8661  165.9762 C.ar    1  UNL1        0.1600
     32 C         139.6890  142.6371  164.6915 C.ar    1  UNL1        0.0101
     33 C         140.1289  144.0706  164.6508 C.3     1  UNL1        0.0339
     34 C         139.1753  141.9747  163.4477 C.ar    1  UNL1       -0.0256
     35 C         139.1843  142.9174  162.2810 C.3     1  UNL1        0.0431
     36 C         138.7557  142.6594  160.8669 C.3     1  UNL1        0.0768
     37 C         140.4042  140.9903  169.7026 C.3     1  UNL1        0.0688
     38 C         141.7697  141.5373  169.4088 C.3     1  UNL1        0.0092
     39 C         139.0388  140.4433  169.9965 C.3     1  UNL1        0.0092
     40 C         140.7435  140.9276  171.1624 C.3     1  UNL1        0.0092
@<TRIPOS>BOND
     1    10    11    1
     2    11    12   ar
     3    12    13   ar
     4    13    14   ar
     5    14    15   ar
     6    15     4    1
     7     4     5   ar
     8     5     6   ar
     9     6     7   ar
    10     7     3    1
    11     3     2    1
    12     2     1    1
    13     1    21    1
    14    21    22    1
    15    22    23    1
    16    23    24    1
    17    24    25    1
    18    25    26   ar
    19    26    27   ar
    20    27    28   ar
    21    28    29   ar
    22    29    37    1
    23    37    38    1
    24    37    39    1
    25    37    40    1
    26    29    30   ar
    27    30    31   ar
    28    31    32   ar
    29    32    33    1
    30    32    34   ar
    31    34    35    1
    32    35    36    1
    33     7     8   ar
    34     8     9    1
    35    15    16   ar
    36    16    17   ar
    37    17    18   ar
    38    18    19   ar
    39    19    20   ar
    40    20    11   ar
    41    19    14   ar
    42     8     4   ar
    43    36    22    1
    44    34    25   ar
    45    31    27   ar
