@<TRIPOS>MOLECULE
*****
 28 30 0 0 0
SMALL
GASTEIGER

@<TRIPOS>ATOM
      1 N         139.9924  140.3480  167.0467 N.ar    1  UNL1       -0.3190
      2 C         138.7725  139.5108  167.2935 C.ar    1  UNL1        0.0823
      3 C         138.4659  139.5598  168.7610 C.ar    1  UNL1        0.0895
      4 C         139.4963  140.4273  169.4212 C.ar    1  UNL1        0.1028
      5 N         139.6974  140.8365  170.8501 N.ar    1  UNL1       -0.2425
      6 C         140.8419  141.7329  171.2196 C.ar    1  UNL1        0.0946
      7 C         141.7854  142.2201  170.1601 C.ar    1  UNL1       -0.0013
      8 C         142.9299  143.1165  170.5296 C.3     1  UNL1        0.0327
      9 C         141.5843  141.8108  168.7311 C.ar    1  UNL1        0.0160
     10 C         140.4398  140.9144  168.3616 C.ar    1  UNL1        0.0780
     11 C         137.3286  138.8636  169.4479 C.2     1  UNL1        0.2490
     12 O         136.5405  137.8160  168.7190 O.2     1  UNL1       -0.2700
     13 N         136.9793  139.2150  170.8638 N.am    1  UNL1       -0.2959
     14 H         137.4966  139.9026  171.3422 H       1  UNL1        0.1499
     15 C         135.8420  138.5188  171.5506 C.3     1  UNL1        0.1627
     16 C         136.1025  137.2981  172.3825 C.3     1  UNL1        0.3378
     17 F         137.4118  136.5757  172.2645 F       1  UNL1       -0.1965
     18 F         135.0539  136.7999  173.3322 F       1  UNL1       -0.1965
     19 C         140.6496  140.5784  165.7182 C.3     1  UNL1        0.1518
     20 C         141.9456  144.0654  164.3355 C.ar    1  UNL1        0.2234
     21 N         140.6562  144.6922  163.8943 N.ar    1  UNL1       -0.1896
     22 C         139.3647  143.9478  164.0610 C.ar    1  UNL1        0.2012
     23 N         139.3625  142.5765  164.6690 N.ar    1  UNL1       -0.2265
     24 C         140.6518  141.9497  165.1102 C.ar    1  UNL1        0.0841
     25 C         141.9433  142.6942  164.9435 C.ar    1  UNL1        0.0468
     26 C         143.2326  142.0672  165.3847 C.3     1  UNL1        0.0372
     27 C         144.0168  144.6827  162.8937 C.3     1  UNL1        0.2542
     28 O         143.2371  144.8098  164.1688 O.3     1  UNL1       -0.4563
@<TRIPOS>BOND
     1    27    28    1
     2    28    20    1
     3    20    21   ar
     4    21    22   ar
     5    22    23   ar
     6    23    24   ar
     7    24    19    1
     8    19     1    1
     9     1     2   ar
    10     2     3   ar
    11     3    11    1
    12    11    12    2
    13    11    13   am
    14    13    15    1
    15    15    16    1
    16    16    17    1
    17    16    18    1
    18     3     4   ar
    19     4     5   ar
    20     5     6   ar
    21     6     7   ar
    22     7     8    1
    23     7     9   ar
    24     9    10   ar
    25    24    25   ar
    26    25    26    1
    27    25    20   ar
    28    10     1   ar
    29    10     4   ar
    30    13    14    1
@<TRIPOS>MOLECULE
*****
 28 30 0 0 0
SMALL
GASTEIGER

@<TRIPOS>ATOM
      1 N         138.6749  140.0271  163.0271 N.ar    1  UNL1       -0.3190
      2 C         138.6521  139.6929  161.5650 C.ar    1  UNL1        0.0823
      3 C         138.4092  140.9621  160.8033 C.ar    1  UNL1        0.0895
      4 C         138.2818  142.0806  161.7946 C.ar    1  UNL1        0.1028
      5 N         138.0375  143.5506  161.6233 N.ar    1  UNL1       -0.2425
      6 C         137.9574  144.4427  162.8264 C.ar    1  UNL1        0.0946
      7 C         138.1216  143.8649  164.2009 C.ar    1  UNL1       -0.0013
      8 C         138.0416  144.7571  165.4040 C.3     1  UNL1        0.0327
      9 C         138.3659  142.3949  164.3722 C.ar    1  UNL1        0.0160
     10 C         138.4460  141.5028  163.1690 C.ar    1  UNL1        0.0780
     11 C         138.3109  141.0902  159.3120 C.2     1  UNL1        0.2490
     12 O         138.1131  139.8678  158.4655 O.2     1  UNL1       -0.2700
     13 N         138.4103  142.4409  158.6671 N.am    1  UNL1       -0.2959
     14 H         138.5400  143.2433  159.2226 H       1  UNL1        0.1499
     15 C         138.3120  142.5691  157.1758 C.3     1  UNL1        0.1627
     16 C         136.9665  142.6247  156.5150 C.3     1  UNL1        0.3378
     17 F         136.5491  143.8557  155.7663 F       1  UNL1       -0.1965
     18 F         136.0386  141.4495  156.6028 F       1  UNL1       -0.1965
     19 C         138.8890  139.0561  164.1502 C.3     1  UNL1        0.1518
     20 C         140.0117  139.7649  167.8903 C.ar    1  UNL1        0.2234
     21 N         141.4247  140.2222  167.6802 N.ar    1  UNL1       -0.1896
     22 C         141.9925  140.2909  166.2935 C.ar    1  UNL1        0.2012
     23 N         141.1473  139.9022  165.1168 N.ar    1  UNL1       -0.2265
     24 C         139.7343  139.4449  165.3269 C.ar    1  UNL1        0.0841
     25 C         139.1665  139.3762  166.7136 C.ar    1  UNL1        0.0468
     26 C         137.7534  138.9188  166.9236 C.3     1  UNL1        0.0372
     27 C         139.5529  140.8801  170.1914 C.3     1  UNL1        0.2542
     28 O         139.4439  139.6962  169.2769 O.3     1  UNL1       -0.4563
@<TRIPOS>BOND
     1    27    28    1
     2    28    20    1
     3    20    21   ar
     4    21    22   ar
     5    22    23   ar
     6    23    24   ar
     7    24    19    1
     8    19     1    1
     9     1     2   ar
    10     2     3   ar
    11     3    11    1
    12    11    12    2
    13    11    13   am
    14    13    15    1
    15    15    16    1
    16    16    17    1
    17    16    18    1
    18     3     4   ar
    19     4     5   ar
    20     5     6   ar
    21     6     7   ar
    22     7     8    1
    23     7     9   ar
    24     9    10   ar
    25    24    25   ar
    26    25    26    1
    27    25    20   ar
    28    10     1   ar
    29    10     4   ar
    30    13    14    1
@<TRIPOS>MOLECULE
*****
 28 30 0 0 0
SMALL
GASTEIGER

@<TRIPOS>ATOM
      1 N         139.0411  139.9814  164.8586 N.ar    1  UNL1       -0.3190
      2 C         138.9172  140.2565  166.3279 C.ar    1  UNL1        0.0823
      3 C         140.2373  139.9481  166.9701 C.ar    1  UNL1        0.0895
      4 C         141.1770  139.4826  165.8976 C.ar    1  UNL1        0.1028
      5 N         142.6103  139.0425  165.9407 N.ar    1  UNL1       -0.2425
      6 C         143.3043  138.6231  164.6788 C.ar    1  UNL1        0.0946
      7 C         142.5650  138.6437  163.3738 C.ar    1  UNL1       -0.0013
      8 C         143.2591  138.2242  162.1119 C.3     1  UNL1        0.0327
      9 C         141.1317  139.0837  163.3307 C.ar    1  UNL1        0.0160
     10 C         140.4377  139.5031  164.5926 C.ar    1  UNL1        0.0780
     11 C         140.5609  140.0819  168.4286 C.2     1  UNL1        0.2490
     12 O         139.5251  139.7472  169.4605 O.2     1  UNL1       -0.2700
     13 N         141.9206  140.5504  168.8553 N.am    1  UNL1       -0.2959
     14 H         142.6005  140.7701  168.1781 H       1  UNL1        0.1499
     15 C         142.2442  140.6842  170.3139 C.3     1  UNL1        0.1627
     16 C         141.9412  141.9640  171.0350 C.3     1  UNL1        0.3378
     17 F         140.6366  142.1271  171.7572 F       1  UNL1       -0.1965
     18 F         142.9426  143.0808  171.0339 F       1  UNL1       -0.1965
     19 C         137.9584  140.1543  163.8349 C.3     1  UNL1        0.1518
     20 C         138.2881  143.6053  161.9029 C.ar    1  UNL1        0.2234
     21 N         138.4743  143.1248  160.4942 N.ar    1  UNL1       -0.1896
     22 C         138.4885  141.6542  160.1990 C.ar    1  UNL1        0.2012
     23 N         138.3166  140.6640  161.3125 N.ar    1  UNL1       -0.2265
     24 C         138.1304  141.1445  162.7213 C.ar    1  UNL1        0.0841
     25 C         138.1162  142.6151  163.0164 C.ar    1  UNL1        0.0468
     26 C         137.9300  143.0956  164.4252 C.3     1  UNL1        0.0372
     27 C         139.5371  145.8764  162.0816 C.3     1  UNL1        0.2542
     28 O         138.2739  145.0759  162.1980 O.3     1  UNL1       -0.4563
@<TRIPOS>BOND
     1    27    28    1
     2    28    20    1
     3    20    21   ar
     4    21    22   ar
     5    22    23   ar
     6    23    24   ar
     7    24    19    1
     8    19     1    1
     9     1     2   ar
    10     2     3   ar
    11     3    11    1
    12    11    12    2
    13    11    13   am
    14    13    15    1
    15    15    16    1
    16    16    17    1
    17    16    18    1
    18     3     4   ar
    19     4     5   ar
    20     5     6   ar
    21     6     7   ar
    22     7     8    1
    23     7     9   ar
    24     9    10   ar
    25    24    25   ar
    26    25    26    1
    27    25    20   ar
    28    10     1   ar
    29    10     4   ar
    30    13    14    1
@<TRIPOS>MOLECULE
*****
 28 30 0 0 0
SMALL
GASTEIGER

@<TRIPOS>ATOM
      1 N         140.5770  143.9435  164.3797 N.ar    1  UNL1       -0.3190
      2 C         139.7517  144.6810  163.3673 C.ar    1  UNL1        0.0823
      3 C         140.5687  144.8217  162.1172 C.ar    1  UNL1        0.0895
      4 C         141.8988  144.1712  162.3570 C.ar    1  UNL1        0.1028
      5 N         143.1060  144.0031  161.4827 N.ar    1  UNL1       -0.2425
      6 C         144.3184  143.2921  162.0068 C.ar    1  UNL1        0.0946
      7 C         144.3235  142.7493  163.4052 C.ar    1  UNL1       -0.0013
      8 C         145.5359  142.0383  163.9292 C.3     1  UNL1        0.0327
      9 C         143.1163  142.9174  164.2794 C.ar    1  UNL1        0.0160
     10 C         141.9040  143.6284  163.7553 C.ar    1  UNL1        0.0780
     11 C         140.1321  145.4948  160.8498 C.2     1  UNL1        0.2490
     12 O         139.1949  146.6645  160.9061 O.2     1  UNL1       -0.2700
     13 N         140.6329  144.9981  159.5258 N.am    1  UNL1       -0.2959
     14 H         141.2480  144.2303  159.4888 H       1  UNL1        0.1499
     15 C         140.1963  145.6712  158.2584 C.3     1  UNL1        0.1627
     16 C         141.2192  146.1249  157.2595 C.3     1  UNL1        0.3378
     17 F         140.8249  146.3433  155.8288 F       1  UNL1       -0.1965
     18 F         142.6363  146.3602  157.6912 F       1  UNL1       -0.1965
     19 C         140.1502  143.5841  165.7721 C.3     1  UNL1        0.1518
     20 C         139.9445  140.2674  167.9419 C.ar    1  UNL1        0.2234
     21 N         139.5439  139.2692  166.8964 N.ar    1  UNL1       -0.1896
     22 C         139.3454  139.7092  165.4762 C.ar    1  UNL1        0.2012
     23 N         139.5475  141.1474  165.1014 N.ar    1  UNL1       -0.2265
     24 C         139.9481  142.1457  166.1469 C.ar    1  UNL1        0.0841
     25 C         140.1466  141.7057  167.5671 C.ar    1  UNL1        0.0468
     26 C         140.5472  142.7041  168.6125 C.3     1  UNL1        0.0372
     27 C         141.5219  139.5198  169.8662 C.3     1  UNL1        0.2542
     28 O         140.1430  139.8274  169.3621 O.3     1  UNL1       -0.4563
@<TRIPOS>BOND
     1    27    28    1
     2    28    20    1
     3    20    21   ar
     4    21    22   ar
     5    22    23   ar
     6    23    24   ar
     7    24    19    1
     8    19     1    1
     9     1     2   ar
    10     2     3   ar
    11     3    11    1
    12    11    12    2
    13    11    13   am
    14    13    15    1
    15    15    16    1
    16    16    17    1
    17    16    18    1
    18     3     4   ar
    19     4     5   ar
    20     5     6   ar
    21     6     7   ar
    22     7     8    1
    23     7     9   ar
    24     9    10   ar
    25    24    25   ar
    26    25    26    1
    27    25    20   ar
    28    10     1   ar
    29    10     4   ar
    30    13    14    1
@<TRIPOS>MOLECULE
*****
 28 30 0 0 0
SMALL
GASTEIGER

@<TRIPOS>ATOM
      1 N         139.7909  140.2602  163.1295 N.ar    1  UNL1       -0.3190
      2 C         139.6819  139.8385  161.6942 C.ar    1  UNL1        0.0823
      3 C         139.0451  140.9603  160.9287 C.ar    1  UNL1        0.0895
      4 C         138.7605  142.0753  161.8909 C.ar    1  UNL1        0.1028
      5 N         138.1413  143.4287  161.7042 N.ar    1  UNL1       -0.2425
      6 C         137.9830  144.3493  162.8778 C.ar    1  UNL1        0.0946
      7 C         138.4440  143.9166  164.2381 C.ar    1  UNL1       -0.0013
      8 C         138.2857  144.8373  165.4117 C.3     1  UNL1        0.0327
      9 C         139.0632  142.5632  164.4247 C.ar    1  UNL1        0.0160
     10 C         139.2215  141.6426  163.2511 C.ar    1  UNL1        0.0780
     11 C         138.7454  140.9662  159.4589 C.2     1  UNL1        0.2490
     12 O         138.3830  139.6883  158.7622 O.2     1  UNL1       -0.2700
     13 N         138.8080  142.2502  158.6858 N.am    1  UNL1       -0.2959
     14 H         139.0458  143.0890  159.1430 H       1  UNL1        0.1499
     15 C         138.5083  142.2560  157.2160 C.3     1  UNL1        0.1627
     16 C         137.0880  142.3376  156.7406 C.3     1  UNL1        0.3378
     17 F         136.5951  143.5804  156.0605 F       1  UNL1       -0.1965
     18 F         136.1607  141.1766  156.9454 F       1  UNL1       -0.1965
     19 C         140.3681  139.4429  164.2471 C.3     1  UNL1        0.1518
     20 C         139.4193  139.9112  168.0722 C.ar    1  UNL1        0.2234
     21 N         138.1617  139.0977  168.1539 N.ar    1  UNL1       -0.1896
     22 C         137.6395  138.3993  166.9334 C.ar    1  UNL1        0.2012
     23 N         138.3749  138.5144  165.6312 N.ar    1  UNL1       -0.2265
     24 C         139.6325  139.3278  165.5495 C.ar    1  UNL1        0.0841
     25 C         140.1547  140.0262  166.7699 C.ar    1  UNL1        0.0468
     26 C         141.4123  140.8397  166.6881 C.3     1  UNL1        0.0372
     27 C         140.7049  139.8390  170.3287 C.3     1  UNL1        0.2542
     28 O         139.9414  140.6096  169.2927 O.3     1  UNL1       -0.4563
@<TRIPOS>BOND
     1    27    28    1
     2    28    20    1
     3    20    21   ar
     4    21    22   ar
     5    22    23   ar
     6    23    24   ar
     7    24    19    1
     8    19     1    1
     9     1     2   ar
    10     2     3   ar
    11     3    11    1
    12    11    12    2
    13    11    13   am
    14    13    15    1
    15    15    16    1
    16    16    17    1
    17    16    18    1
    18     3     4   ar
    19     4     5   ar
    20     5     6   ar
    21     6     7   ar
    22     7     8    1
    23     7     9   ar
    24     9    10   ar
    25    24    25   ar
    26    25    26    1
    27    25    20   ar
    28    10     1   ar
    29    10     4   ar
    30    13    14    1
@<TRIPOS>MOLECULE
*****
 28 30 0 0 0
SMALL
GASTEIGER

@<TRIPOS>ATOM
      1 N         141.5118  138.5183  164.4285 N.ar    1  UNL1       -0.3190
      2 C         140.5126  138.5377  165.5470 C.ar    1  UNL1        0.0823
      3 C         140.8122  139.7233  166.4157 C.ar    1  UNL1        0.0895
      4 C         141.9967  140.4366  165.8340 C.ar    1  UNL1        0.1028
      5 N         142.7374  141.6680  166.2641 N.ar    1  UNL1       -0.2425
      6 C         143.9104  142.1546  165.4660 C.ar    1  UNL1        0.0946
      7 C         144.3428  141.4099  164.2378 C.ar    1  UNL1       -0.0013
      8 C         145.5159  141.8967  163.4396 C.3     1  UNL1        0.0327
      9 C         143.6021  140.1785  163.8077 C.ar    1  UNL1        0.0160
     10 C         142.4291  139.6918  164.6059 C.ar    1  UNL1        0.0780
     11 C         140.0596  140.1250  167.6494 C.2     1  UNL1        0.2490
     12 O         138.8106  139.3913  168.0383 O.2     1  UNL1       -0.2700
     13 N         140.5561  141.2607  168.4944 N.am    1  UNL1       -0.2959
     14 H         141.3760  141.7424  168.2392 H       1  UNL1        0.1499
     15 C         139.8035  141.6625  169.7281 C.3     1  UNL1        0.1627
     16 C         139.9926  143.0324  170.3091 C.3     1  UNL1        0.3378
     17 F         141.1488  143.8806  169.8689 F       1  UNL1       -0.1965
     18 F         139.0256  143.5540  171.3303 F       1  UNL1       -0.1965
     19 C         141.5816  137.5035  163.3260 C.3     1  UNL1        0.1518
     20 C         141.7720  138.3797  159.4600 C.ar    1  UNL1        0.2234
     21 N         140.3243  138.6245  159.1531 N.ar    1  UNL1       -0.1896
     22 C         139.2957  138.4956  160.2373 C.ar    1  UNL1        0.2012
     23 N         139.7147  138.1220  161.6282 N.ar    1  UNL1       -0.2265
     24 C         141.1625  137.8772  161.9350 C.ar    1  UNL1        0.0841
     25 C         142.1911  138.0061  160.8509 C.ar    1  UNL1        0.0468
     26 C         143.6388  137.7613  161.1578 C.3     1  UNL1        0.0372
     27 C         142.8003  137.5482  157.2236 C.3     1  UNL1        0.2542
     28 O         142.8007  138.5086  158.3758 O.3     1  UNL1       -0.4563
@<TRIPOS>BOND
     1    27    28    1
     2    28    20    1
     3    20    21   ar
     4    21    22   ar
     5    22    23   ar
     6    23    24   ar
     7    24    19    1
     8    19     1    1
     9     1     2   ar
    10     2     3   ar
    11     3    11    1
    12    11    12    2
    13    11    13   am
    14    13    15    1
    15    15    16    1
    16    16    17    1
    17    16    18    1
    18     3     4   ar
    19     4     5   ar
    20     5     6   ar
    21     6     7   ar
    22     7     8    1
    23     7     9   ar
    24     9    10   ar
    25    24    25   ar
    26    25    26    1
    27    25    20   ar
    28    10     1   ar
    29    10     4   ar
    30    13    14    1
@<TRIPOS>MOLECULE
*****
 28 30 0 0 0
SMALL
GASTEIGER

@<TRIPOS>ATOM
      1 N         139.1305  139.7903  165.4075 N.ar    1  UNL1       -0.3190
      2 C         139.8747  139.5668  166.6906 C.ar    1  UNL1        0.0823
      3 C         140.2399  140.9080  167.2542 C.ar    1  UNL1        0.0895
      4 C         139.7214  141.9604  166.3196 C.ar    1  UNL1        0.1028
      5 N         139.7851  143.4585  166.3603 N.ar    1  UNL1       -0.2425
      6 C         139.1631  144.2658  165.2597 C.ar    1  UNL1        0.0946
      7 C         138.4774  143.5750  164.1184 C.ar    1  UNL1       -0.0013
      8 C         137.8553  144.3823  163.0177 C.3     1  UNL1        0.0327
      9 C         138.4137  142.0769  164.0776 C.ar    1  UNL1        0.0160
     10 C         139.0357  141.2696  165.1782 C.ar    1  UNL1        0.0780
     11 C         140.9916  141.1537  168.5288 C.2     1  UNL1        0.2490
     12 O         140.2573  141.5977  169.7590 O.2     1  UNL1       -0.2700
     13 N         142.4779  140.9554  168.5731 N.am    1  UNL1       -0.2959
     14 H         142.9599  140.6639  167.7657 H       1  UNL1        0.1499
     15 C         143.2296  141.2011  169.8477 C.3     1  UNL1        0.1627
     16 C         143.7495  142.5731  170.1591 C.3     1  UNL1        0.3378
     17 F         145.2246  142.8430  170.1196 F       1  UNL1       -0.1965
     18 F         142.7945  143.6754  170.5099 F       1  UNL1       -0.1965
     19 C         138.5779  138.7220  164.5111 C.3     1  UNL1        0.1518
     20 C         140.7821  137.9683  161.2980 C.ar    1  UNL1        0.2234
     21 N         139.8890  138.4917  160.2125 N.ar    1  UNL1       -0.1896
     22 C         138.5589  139.0918  160.5598 C.ar    1  UNL1        0.2012
     23 N         138.1218  139.1686  161.9926 N.ar    1  UNL1       -0.2265
     24 C         139.0150  138.6452  163.0782 C.ar    1  UNL1        0.0841
     25 C         140.3451  138.0451  162.7309 C.ar    1  UNL1        0.0468
     26 C         141.2382  137.5217  163.8165 C.3     1  UNL1        0.0372
     27 C         142.9811  138.0186  159.9154 C.3     1  UNL1        0.2542
     28 O         142.1122  137.3682  160.9507 O.3     1  UNL1       -0.4563
@<TRIPOS>BOND
     1    27    28    1
     2    28    20    1
     3    20    21   ar
     4    21    22   ar
     5    22    23   ar
     6    23    24   ar
     7    24    19    1
     8    19     1    1
     9     1     2   ar
    10     2     3   ar
    11     3    11    1
    12    11    12    2
    13    11    13   am
    14    13    15    1
    15    15    16    1
    16    16    17    1
    17    16    18    1
    18     3     4   ar
    19     4     5   ar
    20     5     6   ar
    21     6     7   ar
    22     7     8    1
    23     7     9   ar
    24     9    10   ar
    25    24    25   ar
    26    25    26    1
    27    25    20   ar
    28    10     1   ar
    29    10     4   ar
    30    13    14    1
@<TRIPOS>MOLECULE
*****
 28 30 0 0 0
SMALL
GASTEIGER

@<TRIPOS>ATOM
      1 N         143.3732  142.9023  164.4925 N.ar    1  UNL1       -0.3190
      2 C         143.4339  142.2358  165.8349 C.ar    1  UNL1        0.0823
      3 C         142.1130  142.4424  166.5150 C.ar    1  UNL1        0.0895
      4 C         141.2360  143.2366  165.5930 C.ar    1  UNL1        0.1028
      5 N         139.8288  143.7376  165.7302 N.ar    1  UNL1       -0.2425
      6 C         139.2005  144.5229  164.6174 C.ar    1  UNL1        0.0946
      7 C         139.9793  144.8071  163.3673 C.ar    1  UNL1       -0.0013
      8 C         139.3510  145.5925  162.2544 C.3     1  UNL1        0.0327
      9 C         141.3865  144.3061  163.2301 C.ar    1  UNL1        0.0160
     10 C         142.0148  143.5208  164.3430 C.ar    1  UNL1        0.0780
     11 C         141.7354  141.9425  167.8780 C.2     1  UNL1        0.2490
     12 O         142.6699  141.0445  168.6330 O.2     1  UNL1       -0.2700
     13 N         140.4232  142.3408  168.4860 N.am    1  UNL1       -0.2959
     14 H         139.8097  142.9302  167.9904 H       1  UNL1        0.1499
     15 C         140.0456  141.8409  169.8489 C.3     1  UNL1        0.1627
     16 C         139.5992  140.4204  170.0296 C.3     1  UNL1        0.3378
     17 F         140.6120  139.3417  170.2762 F       1  UNL1       -0.1965
     18 F         138.1402  140.0784  169.9637 F       1  UNL1       -0.1965
     19 C         144.4770  142.9432  163.4777 C.3     1  UNL1        0.1518
     20 C         144.1420  140.2758  160.5582 C.ar    1  UNL1        0.2234
     21 N         143.8430  141.1692  159.3909 N.ar    1  UNL1       -0.1896
     22 C         143.7554  142.6539  159.5859 C.ar    1  UNL1        0.2012
     23 N         143.9667  143.2453  160.9481 N.ar    1  UNL1       -0.2265
     24 C         144.2657  142.3519  162.1153 C.ar    1  UNL1        0.0841
     25 C         144.3533  140.8672  161.9203 C.ar    1  UNL1        0.0468
     26 C         144.6524  139.9738  163.0877 C.3     1  UNL1        0.0372
     27 C         142.9803  137.9613  160.3509 C.3     1  UNL1        0.2542
     28 O         144.2297  138.7912  160.3632 O.3     1  UNL1       -0.4563
@<TRIPOS>BOND
     1    27    28    1
     2    28    20    1
     3    20    21   ar
     4    21    22   ar
     5    22    23   ar
     6    23    24   ar
     7    24    19    1
     8    19     1    1
     9     1     2   ar
    10     2     3   ar
    11     3    11    1
    12    11    12    2
    13    11    13   am
    14    13    15    1
    15    15    16    1
    16    16    17    1
    17    16    18    1
    18     3     4   ar
    19     4     5   ar
    20     5     6   ar
    21     6     7   ar
    22     7     8    1
    23     7     9   ar
    24     9    10   ar
    25    24    25   ar
    26    25    26    1
    27    25    20   ar
    28    10     1   ar
    29    10     4   ar
    30    13    14    1
@<TRIPOS>MOLECULE
*****
 28 30 0 0 0
SMALL
GASTEIGER

@<TRIPOS>ATOM
      1 N         139.2494  142.6723  164.3676 N.ar    1  UNL1       -0.3190
      2 C         139.8103  142.9178  165.7370 C.ar    1  UNL1        0.0823
      3 C         139.9887  141.5892  166.4099 C.ar    1  UNL1        0.0895
      4 C         139.5380  140.5224  165.4564 C.ar    1  UNL1        0.1028
      5 N         139.4847  139.0281  165.5745 N.ar    1  UNL1       -0.2425
      6 C         138.9745  138.2031  164.4304 C.ar    1  UNL1        0.0946
      7 C         138.5176  138.8725  163.1682 C.ar    1  UNL1       -0.0013
      8 C         138.0073  138.0475  162.0240 C.3     1  UNL1        0.0327
      9 C         138.5709  140.3669  163.0501 C.ar    1  UNL1        0.0160
     10 C         139.0811  141.1918  164.1942 C.ar    1  UNL1        0.0780
     11 C         140.5238  141.3663  167.7933 C.2     1  UNL1        0.2490
     12 O         141.2286  142.4777  168.5130 O.2     1  UNL1       -0.2700
     13 N         140.3540  140.0319  168.4573 N.am    1  UNL1       -0.2959
     14 H         139.8913  139.3024  167.9850 H       1  UNL1        0.1499
     15 C         140.8890  139.8090  169.8407 C.3     1  UNL1        0.1627
     16 C         142.3311  139.4463  170.0376 C.3     1  UNL1        0.3378
     17 F         143.3749  140.5224  170.0881 F       1  UNL1       -0.1965
     18 F         142.7294  138.0076  170.1840 F       1  UNL1       -0.1965
     19 C         138.9153  143.7227  163.3503 C.3     1  UNL1        0.1518
     20 C         141.3201  143.7253  160.1931 C.ar    1  UNL1        0.2234
     21 N         140.3713  143.2954  159.1137 N.ar    1  UNL1       -0.1896
     22 C         138.9372  143.0080  159.4466 C.ar    1  UNL1        0.2012
     23 N         138.4518  143.1504  160.8587 N.ar    1  UNL1       -0.2265
     24 C         139.4007  143.5802  161.9380 C.ar    1  UNL1        0.0841
     25 C         140.8347  143.8677  161.6052 C.ar    1  UNL1        0.0468
     26 C         141.7835  144.2975  162.6846 C.3     1  UNL1        0.0372
     27 C         143.6985  142.8831  159.5738 C.3     1  UNL1        0.2542
     28 O         142.7542  144.0127  159.8603 O.3     1  UNL1       -0.4563
@<TRIPOS>BOND
     1    27    28    1
     2    28    20    1
     3    20    21   ar
     4    21    22   ar
     5    22    23   ar
     6    23    24   ar
     7    24    19    1
     8    19     1    1
     9     1     2   ar
    10     2     3   ar
    11     3    11    1
    12    11    12    2
    13    11    13   am
    14    13    15    1
    15    15    16    1
    16    16    17    1
    17    16    18    1
    18     3     4   ar
    19     4     5   ar
    20     5     6   ar
    21     6     7   ar
    22     7     8    1
    23     7     9   ar
    24     9    10   ar
    25    24    25   ar
    26    25    26    1
    27    25    20   ar
    28    10     1   ar
    29    10     4   ar
    30    13    14    1
