@<TRIPOS>MOLECULE
*****
 38 42 0 0 0
SMALL
GASTEIGER

@<TRIPOS>ATOM
      1 N         142.1746  142.1643  160.8521 N.3     1  UNL1       -0.2689
      2 C         141.2417  141.3667  161.7143 C.3     1  UNL1        0.0724
      3 C         141.4203  141.3572  163.2036 C.3     1  UNL1        0.0175
      4 C         142.5319  142.1454  163.8307 C.3     1  UNL1        0.0060
      5 C         143.4648  142.9430  162.9685 C.3     1  UNL1        0.0175
      6 C         143.2862  142.9525  161.4792 C.3     1  UNL1        0.0724
      7 C         141.5989  141.3477  164.6929 C.3     1  UNL1        0.0217
      8 C         141.7776  141.3383  166.1822 C.3     1  UNL1        0.0937
      9 N         142.8892  142.1264  166.8093 N.am    1  UNL1       -0.2761
     10 C         143.0678  142.1169  168.2986 C.2     1  UNL1        0.2490
     11 O         144.1793  142.9050  168.9257 O.2     1  UNL1       -0.2699
     12 C         143.8221  142.9240  165.9471 C.3     1  UNL1        0.0937
     13 C         143.6435  142.9335  164.4577 C.3     1  UNL1        0.0217
     14 C         142.1348  141.3193  169.1608 C.ar    1  UNL1        0.0547
     15 C         142.4749  139.9043  169.5246 C.ar    1  UNL1        0.0046
     16 C         141.5419  139.1067  170.3868 C.ar    1  UNL1        0.0001
     17 C         140.2689  139.7240  170.8852 C.ar    1  UNL1        0.0000
     18 C         139.9289  141.1390  170.5214 C.ar    1  UNL1        0.0013
     19 C         140.8619  141.9366  169.6592 C.ar    1  UNL1        0.0184
     20 C         140.5218  143.3515  169.2954 C.2     1  UNL1        0.0730
     21 O         139.8984  143.6548  167.9653 O.co2   1  UNL1       -0.5446
     22 O         140.8053  144.4632  170.2618 O.co2   1  UNL1       -0.5446
     23 C         141.9960  142.1738  159.3628 C.3     1  UNL1        0.1022
     24 C         140.4261  144.2004  158.9402 C.ar    1  UNL1        0.1427
     25 C         140.1286  145.4870  158.2286 C.ar    1  UNL1        0.0372
     26 C         141.1035  146.0335  157.2283 C.ar    1  UNL1        0.0031
     27 C         142.3759  145.2936  156.9393 C.ar    1  UNL1       -0.0001
     28 C         142.6734  144.0070  157.6508 C.ar    1  UNL1        0.0001
     29 C         141.6985  143.4604  158.6513 C.ar    1  UNL1        0.0284
     30 O         139.4512  143.6538  159.9406 O.3     1  UNL1       -0.4507
     31 C         138.5512  143.5404  162.3751 C.ar    1  UNL1        0.1730
     32 C         138.6294  143.9695  163.8103 C.ar    1  UNL1        0.0401
     33 C         139.6857  144.9412  164.2461 C.ar    1  UNL1        0.0033
     34 C         140.6639  145.4838  163.2467 C.ar    1  UNL1        0.0033
     35 C         140.5858  145.0547  161.8116 C.ar    1  UNL1        0.0406
     36 C         139.5294  144.0829  161.3758 C.ar    1  UNL1        0.1789
     37 C         137.6234  141.1152  162.2870 C.3     1  UNL1        0.2526
     38 O         137.4948  142.5686  161.9393 O.3     1  UNL1       -0.4684
@<TRIPOS>UNITY_ATOM_ATTR
21 1
charge -1
@<TRIPOS>BOND
     1    37    38    1
     2    38    31    1
     3    31    32   ar
     4    32    33   ar
     5    33    34   ar
     6    34    35   ar
     7    35    36   ar
     8    36    30    1
     9    30    24    1
    10    24    25   ar
    11    25    26   ar
    12    26    27   ar
    13    27    28   ar
    14    28    29   ar
    15    29    23    1
    16    23     1    1
    17     1     2    1
    18     2     3    1
    19     3     4    1
    20     4     5    1
    21     5     6    1
    22     4     7    1
    23     7     8    1
    24     8     9    1
    25     9    10   am
    26    10    11    2
    27    10    14    1
    28    14    15   ar
    29    15    16   ar
    30    16    17   ar
    31    17    18   ar
    32    18    19   ar
    33    19    20    1
    34    20    21   ar
    35    20    22   ar
    36     9    12    1
    37    12    13    1
    38    36    31   ar
    39    29    24   ar
    40     6     1    1
    41    19    14   ar
    42    13     4    1
@<TRIPOS>MOLECULE
*****
 38 42 0 0 0
SMALL
GASTEIGER

@<TRIPOS>ATOM
      1 N         141.8777  140.2624  160.4325 N.3     1  UNL1       -0.2689
      2 C         141.0201  141.1440  161.2911 C.3     1  UNL1        0.0724
      3 C         141.0984  141.0407  162.7855 C.3     1  UNL1        0.0175
      4 C         142.0344  140.0558  163.4212 C.3     1  UNL1        0.0060
      5 C         142.8920  139.1743  162.5625 C.3     1  UNL1        0.0175
      6 C         142.8136  139.2776  161.0682 C.3     1  UNL1        0.0724
      7 C         141.1768  140.9374  164.2799 C.3     1  UNL1        0.0217
      8 C         141.2551  140.8341  165.7743 C.3     1  UNL1        0.0937
      9 N         142.1910  139.8493  166.4100 N.am    1  UNL1       -0.2761
     10 C         142.2693  139.7460  167.9044 C.2     1  UNL1        0.2490
     11 O         143.2053  138.7611  168.5401 O.2     1  UNL1       -0.2699
     12 C         143.0486  138.9677  165.5513 C.3     1  UNL1        0.0937
     13 C         142.9703  139.0710  164.0569 C.3     1  UNL1        0.0217
     14 C         141.4118  140.6275  168.7631 C.ar    1  UNL1        0.0547
     15 C         140.0391  140.1762  169.1657 C.ar    1  UNL1        0.0046
     16 C         139.1815  141.0577  170.0244 C.ar    1  UNL1        0.0001
     17 C         139.6966  142.3907  170.4805 C.ar    1  UNL1        0.0000
     18 C         141.0692  142.8421  170.0778 C.ar    1  UNL1        0.0013
     19 C         141.9268  141.9605  169.2191 C.ar    1  UNL1        0.0184
     20 C         143.2994  142.4118  168.8165 C.2     1  UNL1        0.0730
     21 O         143.5866  142.7534  167.3844 O.co2   1  UNL1       -0.5446
     22 O         144.3849  142.5216  169.8459 O.co2   1  UNL1       -0.5446
     23 C         141.7994  140.3657  158.9380 C.3     1  UNL1        0.1022
     24 C         143.7264  142.0082  158.3559 C.ar    1  UNL1        0.1427
     25 C         144.9548  142.3403  157.5616 C.ar    1  UNL1        0.0372
     26 C         145.4844  141.3622  156.5553 C.ar    1  UNL1        0.0031
     27 C         144.7857  140.0519  156.3432 C.ar    1  UNL1       -0.0001
     28 C         143.5574  139.7197  157.1374 C.ar    1  UNL1        0.0001
     29 C         143.0277  140.6979  158.1438 C.ar    1  UNL1        0.0284
     30 O         143.1967  142.9863  159.3622 O.3     1  UNL1       -0.4507
     31 C         143.1520  143.9150  161.7882 C.ar    1  UNL1        0.1730
     32 C         143.6750  143.9021  163.1940 C.ar    1  UNL1        0.0401
     33 C         144.7658  142.9475  163.5796 C.ar    1  UNL1        0.0033
     34 C         145.3337  142.0057  162.5594 C.ar    1  UNL1        0.0033
     35 C         144.8106  142.0186  161.1536 C.ar    1  UNL1        0.0406
     36 C         143.7198  142.9733  160.7680 C.ar    1  UNL1        0.1789
     37 C         140.8181  144.9647  162.2367 C.3     1  UNL1        0.2526
     38 O         142.0611  144.8697  161.4026 O.3     1  UNL1       -0.4684
@<TRIPOS>UNITY_ATOM_ATTR
21 1
charge -1
@<TRIPOS>BOND
     1    37    38    1
     2    38    31    1
     3    31    32   ar
     4    32    33   ar
     5    33    34   ar
     6    34    35   ar
     7    35    36   ar
     8    36    30    1
     9    30    24    1
    10    24    25   ar
    11    25    26   ar
    12    26    27   ar
    13    27    28   ar
    14    28    29   ar
    15    29    23    1
    16    23     1    1
    17     1     2    1
    18     2     3    1
    19     3     4    1
    20     4     5    1
    21     5     6    1
    22     4     7    1
    23     7     8    1
    24     8     9    1
    25     9    10   am
    26    10    11    2
    27    10    14    1
    28    14    15   ar
    29    15    16   ar
    30    16    17   ar
    31    17    18   ar
    32    18    19   ar
    33    19    20    1
    34    20    21   ar
    35    20    22   ar
    36     9    12    1
    37    12    13    1
    38    36    31   ar
    39    29    24   ar
    40     6     1    1
    41    19    14   ar
    42    13     4    1
@<TRIPOS>MOLECULE
*****
 38 42 0 0 0
SMALL
GASTEIGER

@<TRIPOS>ATOM
      1 N         143.0749  140.0042  160.6109 N.3     1  UNL1       -0.2689
      2 C         142.6532  141.2340  161.3589 C.3     1  UNL1        0.0724
      3 C         142.5693  141.2092  162.8564 C.3     1  UNL1        0.0175
      4 C         142.9072  139.9545  163.6058 C.3     1  UNL1        0.0060
      5 C         143.3289  138.7246  162.8577 C.3     1  UNL1        0.0175
      6 C         143.4128  138.7495  161.3603 C.3     1  UNL1        0.0724
      7 C         142.4854  141.1844  164.3539 C.3     1  UNL1        0.0217
      8 C         142.4015  141.1595  165.8513 C.3     1  UNL1        0.0937
      9 N         142.7394  139.9048  166.6007 N.am    1  UNL1       -0.2761
     10 C         142.6555  139.8800  168.0982 C.2     1  UNL1        0.2490
     11 O         142.9933  138.6253  168.8476 O.2     1  UNL1       -0.2699
     12 C         143.1611  138.6750  165.8527 C.3     1  UNL1        0.0937
     13 C         143.2450  138.6998  164.3552 C.3     1  UNL1        0.0217
     14 C         142.2337  141.1099  168.8462 C.ar    1  UNL1        0.0547
     15 C         143.2676  141.9988  169.4715 C.ar    1  UNL1        0.0046
     16 C         142.8458  143.2286  170.2195 C.ar    1  UNL1        0.0001
     17 C         141.3902  143.5696  170.3422 C.ar    1  UNL1        0.0000
     18 C         140.3564  142.6807  169.7170 C.ar    1  UNL1        0.0013
     19 C         140.7782  141.4507  168.9689 C.ar    1  UNL1        0.0184
     20 C         139.7444  140.5618  168.3436 C.2     1  UNL1        0.0730
     21 O         139.4122  140.7064  166.8881 O.co2   1  UNL1       -0.5446
     22 O         139.0427  139.5282  169.1740 O.co2   1  UNL1       -0.5446
     23 C         143.1588  140.0290  159.1134 C.3     1  UNL1        0.1022
     24 C         140.8268  139.1256  158.4096 C.ar    1  UNL1        0.1427
     25 C         139.9902  138.1832  157.5958 C.ar    1  UNL1        0.0372
     26 C         140.6491  137.2022  156.6721 C.ar    1  UNL1        0.0031
     27 C         142.1445  137.1633  156.5621 C.ar    1  UNL1       -0.0001
     28 C         142.9811  138.1056  157.3759 C.ar    1  UNL1        0.0001
     29 C         142.3223  139.0867  158.2997 C.ar    1  UNL1        0.0284
     30 O         140.1679  140.1066  159.3334 O.3     1  UNL1       -0.4507
     31 C         138.7309  140.5454  161.4529 C.ar    1  UNL1        0.1730
     32 C         138.1913  140.0852  162.7746 C.ar    1  UNL1        0.0401
     33 C         138.5490  138.7260  163.2986 C.ar    1  UNL1        0.0033
     34 C         139.4464  137.8270  162.5008 C.ar    1  UNL1        0.0033
     35 C         139.9860  138.2872  161.1791 C.ar    1  UNL1        0.0406
     36 C         139.6283  139.6464  160.6551 C.ar    1  UNL1        0.1789
     37 C         139.3422  143.0412  161.0684 C.3     1  UNL1        0.2526
     38 O         138.3732  141.9047  160.9289 O.3     1  UNL1       -0.4684
@<TRIPOS>UNITY_ATOM_ATTR
21 1
charge -1
@<TRIPOS>BOND
     1    37    38    1
     2    38    31    1
     3    31    32   ar
     4    32    33   ar
     5    33    34   ar
     6    34    35   ar
     7    35    36   ar
     8    36    30    1
     9    30    24    1
    10    24    25   ar
    11    25    26   ar
    12    26    27   ar
    13    27    28   ar
    14    28    29   ar
    15    29    23    1
    16    23     1    1
    17     1     2    1
    18     2     3    1
    19     3     4    1
    20     4     5    1
    21     5     6    1
    22     4     7    1
    23     7     8    1
    24     8     9    1
    25     9    10   am
    26    10    11    2
    27    10    14    1
    28    14    15   ar
    29    15    16   ar
    30    16    17   ar
    31    17    18   ar
    32    18    19   ar
    33    19    20    1
    34    20    21   ar
    35    20    22   ar
    36     9    12    1
    37    12    13    1
    38    36    31   ar
    39    29    24   ar
    40     6     1    1
    41    19    14   ar
    42    13     4    1
@<TRIPOS>MOLECULE
*****
 38 42 0 0 0
SMALL
GASTEIGER

@<TRIPOS>ATOM
      1 N         139.9028  140.6854  160.6224 N.3     1  UNL1       -0.2689
      2 C         140.7836  141.6174  161.4004 C.3     1  UNL1        0.0724
      3 C         140.7829  141.5735  162.8997 C.3     1  UNL1        0.0175
      4 C         139.9012  140.5975  163.6210 C.3     1  UNL1        0.0060
      5 C         139.0204  139.6655  162.8430 C.3     1  UNL1        0.0175
      6 C         139.0212  139.7095  161.3437 C.3     1  UNL1        0.0724
      7 C         140.7821  141.5296  164.3992 C.3     1  UNL1        0.0217
      8 C         140.7814  141.4856  165.8985 C.3     1  UNL1        0.0937
      9 N         139.8998  140.5096  166.6198 N.am    1  UNL1       -0.2761
     10 C         139.8990  140.4657  168.1192 C.2     1  UNL1        0.2490
     11 O         139.0174  139.4897  168.8404 O.2     1  UNL1       -0.2699
     12 C         139.0189  139.5776  165.8417 C.3     1  UNL1        0.0937
     13 C         139.0196  139.6215  164.3423 C.3     1  UNL1        0.0217
     14 C         140.7799  141.3977  168.8972 C.ar    1  UNL1        0.0547
     15 C         140.2891  142.7689  169.2562 C.ar    1  UNL1        0.0046
     16 C         141.1700  143.7009  170.0342 C.ar    1  UNL1        0.0001
     17 C         142.5417  143.2617  170.4533 C.ar    1  UNL1        0.0000
     18 C         143.0325  141.8905  170.0944 C.ar    1  UNL1        0.0013
     19 C         142.1515  140.9585  169.3163 C.ar    1  UNL1        0.0184
     20 C         142.6423  139.5873  168.9573 C.2     1  UNL1        0.0730
     21 O         142.6863  138.5097  169.9998 O.co2   1  UNL1       -0.5446
     22 O         143.0891  139.2937  167.5557 O.co2   1  UNL1       -0.5446
     23 C         139.9035  140.7293  159.1230 C.3     1  UNL1        0.1022
     24 C         141.8439  139.1879  158.3430 C.ar    1  UNL1        0.1427
     25 C         142.3278  138.0046  157.5582 C.ar    1  UNL1        0.0372
     26 C         141.3551  137.1797  156.7687 C.ar    1  UNL1        0.0031
     27 C         139.8985  137.5380  156.7639 C.ar    1  UNL1       -0.0001
     28 C         139.4146  138.7212  157.5487 C.ar    1  UNL1        0.0001
     29 C         140.3874  139.5462  158.3382 C.ar    1  UNL1        0.0284
     30 O         142.8166  140.0128  159.1324 O.3     1  UNL1       -0.4507
     31 C         144.0343  140.5215  161.3703 C.ar    1  UNL1        0.1730
     32 C         144.3479  140.1560  162.7909 C.ar    1  UNL1        0.0401
     33 C         143.7573  138.9162  163.3942 C.ar    1  UNL1        0.0033
     34 C         142.8531  138.0418  162.5769 C.ar    1  UNL1        0.0033
     35 C         142.5396  138.4073  161.1563 C.ar    1  UNL1        0.0406
     36 C         143.1302  139.6472  160.5530 C.ar    1  UNL1        0.1789
     37 C         144.3588  143.0992  161.3912 C.3     1  UNL1        0.2526
     38 O         144.6250  141.7615  160.7671 O.3     1  UNL1       -0.4684
@<TRIPOS>UNITY_ATOM_ATTR
21 1
charge -1
@<TRIPOS>BOND
     1    37    38    1
     2    38    31    1
     3    31    32   ar
     4    32    33   ar
     5    33    34   ar
     6    34    35   ar
     7    35    36   ar
     8    36    30    1
     9    30    24    1
    10    24    25   ar
    11    25    26   ar
    12    26    27   ar
    13    27    28   ar
    14    28    29   ar
    15    29    23    1
    16    23     1    1
    17     1     2    1
    18     2     3    1
    19     3     4    1
    20     4     5    1
    21     5     6    1
    22     4     7    1
    23     7     8    1
    24     8     9    1
    25     9    10   am
    26    10    11    2
    27    10    14    1
    28    14    15   ar
    29    15    16   ar
    30    16    17   ar
    31    17    18   ar
    32    18    19   ar
    33    19    20    1
    34    20    21   ar
    35    20    22   ar
    36     9    12    1
    37    12    13    1
    38    36    31   ar
    39    29    24   ar
    40     6     1    1
    41    19    14   ar
    42    13     4    1
@<TRIPOS>MOLECULE
*****
 38 42 0 0 0
SMALL
GASTEIGER

@<TRIPOS>ATOM
      1 N         139.1084  141.6741  161.0264 N.3     1  UNL1       -0.2689
      2 C         139.9735  140.7190  161.7941 C.3     1  UNL1        0.0724
      3 C         140.2495  140.9602  163.2485 C.3     1  UNL1        0.0175
      4 C         139.6605  142.1566  163.9354 C.3     1  UNL1        0.0060
      5 C         138.7954  143.1117  163.1678 C.3     1  UNL1        0.0175
      6 C         138.5193  142.8705  161.7133 C.3     1  UNL1        0.0724
      7 C         140.5257  141.2014  164.7031 C.3     1  UNL1        0.0217
      8 C         140.8017  141.4426  166.1576 C.3     1  UNL1        0.0937
      9 N         140.2127  142.6390  166.8444 N.am    1  UNL1       -0.2761
     10 C         140.4888  142.8802  168.2990 C.2     1  UNL1        0.2490
     11 O         139.8998  144.0765  168.9859 O.2     1  UNL1       -0.2699
     12 C         139.3476  143.5941  166.0768 C.3     1  UNL1        0.0937
     13 C         139.0715  143.3529  164.6223 C.3     1  UNL1        0.0217
     14 C         141.3539  141.9250  169.0666 C.ar    1  UNL1        0.0547
     15 C         142.8155  142.2125  169.2426 C.ar    1  UNL1        0.0046
     16 C         143.6806  141.2574  170.0103 C.ar    1  UNL1        0.0001
     17 C         143.0841  140.0147  170.6019 C.ar    1  UNL1        0.0000
     18 C         141.6225  139.7272  170.4258 C.ar    1  UNL1        0.0013
     19 C         140.7574  140.6824  169.6582 C.ar    1  UNL1        0.0184
     20 C         139.2958  140.3949  169.4821 C.2     1  UNL1        0.0730
     21 O         138.2992  140.9527  170.4546 O.co2   1  UNL1       -0.5446
     22 O         138.8307  139.5496  168.3335 O.co2   1  UNL1       -0.5446
     23 C         138.8322  141.4329  159.5719 C.3     1  UNL1        0.1022
     24 C         141.1171  141.8353  158.4024 C.ar    1  UNL1        0.1427
     25 C         142.2159  141.3587  157.4994 C.ar    1  UNL1        0.0372
     26 C         142.1287  140.0033  156.8628 C.ar    1  UNL1        0.0031
     27 C         140.9427  139.1245  157.1292 C.ar    1  UNL1       -0.0001
     28 C         139.8439  139.6010  158.0322 C.ar    1  UNL1        0.0001
     29 C         139.9311  140.9564  158.6689 C.ar    1  UNL1        0.0284
     30 O         141.2043  143.1907  159.0390 O.3     1  UNL1       -0.4507
     31 C         141.5922  144.5459  161.2214 C.ar    1  UNL1        0.1730
     32 C         142.2831  144.7110  162.5426 C.ar    1  UNL1        0.0401
     33 C         143.2768  143.6859  163.0025 C.ar    1  UNL1        0.0033
     34 C         143.5797  142.4956  162.1413 C.ar    1  UNL1        0.0033
     35 C         142.8889  142.3305  160.8201 C.ar    1  UNL1        0.0406
     36 C         141.8951  143.3557  160.3602 C.ar    1  UNL1        0.1789
     37 C         139.7837  146.3297  161.7667 C.3     1  UNL1        0.2526
     38 O         140.5985  145.5711  160.7614 O.3     1  UNL1       -0.4684
@<TRIPOS>UNITY_ATOM_ATTR
21 1
charge -1
@<TRIPOS>BOND
     1    37    38    1
     2    38    31    1
     3    31    32   ar
     4    32    33   ar
     5    33    34   ar
     6    34    35   ar
     7    35    36   ar
     8    36    30    1
     9    30    24    1
    10    24    25   ar
    11    25    26   ar
    12    26    27   ar
    13    27    28   ar
    14    28    29   ar
    15    29    23    1
    16    23     1    1
    17     1     2    1
    18     2     3    1
    19     3     4    1
    20     4     5    1
    21     5     6    1
    22     4     7    1
    23     7     8    1
    24     8     9    1
    25     9    10   am
    26    10    11    2
    27    10    14    1
    28    14    15   ar
    29    15    16   ar
    30    16    17   ar
    31    17    18   ar
    32    18    19   ar
    33    19    20    1
    34    20    21   ar
    35    20    22   ar
    36     9    12    1
    37    12    13    1
    38    36    31   ar
    39    29    24   ar
    40     6     1    1
    41    19    14   ar
    42    13     4    1
@<TRIPOS>MOLECULE
*****
 38 42 0 0 0
SMALL
GASTEIGER

@<TRIPOS>ATOM
      1 N         142.5153  139.6126  166.0337 N.3     1  UNL1       -0.2689
      2 C         142.1151  138.4062  165.2373 C.3     1  UNL1        0.0724
      3 C         142.0576  138.4811  163.7403 C.3     1  UNL1        0.0175
      4 C         142.4003  139.7624  163.0397 C.3     1  UNL1        0.0060
      5 C         142.8004  140.9689  163.8362 C.3     1  UNL1        0.0175
      6 C         142.8580  140.8939  165.3332 C.3     1  UNL1        0.0724
      7 C         142.0001  138.5560  162.2432 C.3     1  UNL1        0.0217
      8 C         141.9425  138.6309  160.7462 C.3     1  UNL1        0.0937
      9 N         142.2852  139.9122  160.0457 N.am    1  UNL1       -0.2761
     10 C         142.2277  139.9871  158.5486 C.2     1  UNL1        0.2490
     11 O         142.5703  141.2684  157.8480 O.2     1  UNL1       -0.2699
     12 C         142.6854  141.1187  160.8421 C.3     1  UNL1        0.0937
     13 C         142.7429  141.0438  162.3392 C.3     1  UNL1        0.0217
     14 C         141.8275  138.7807  157.7522 C.ar    1  UNL1        0.0547
     15 C         142.8657  137.7860  157.3247 C.ar    1  UNL1        0.0046
     16 C         142.4655  136.5796  156.5283 C.ar    1  UNL1        0.0001
     17 C         141.0270  136.3678  156.1592 C.ar    1  UNL1        0.0000
     18 C         139.9889  137.3626  156.5866 C.ar    1  UNL1        0.0013
     19 C         140.3891  138.5690  157.3831 C.ar    1  UNL1        0.0184
     20 C         139.3509  139.5638  157.8105 C.2     1  UNL1        0.0730
     21 O         139.0727  140.7689  156.9619 O.co2   1  UNL1       -0.5446
     22 O         138.5910  139.3533  159.0866 O.co2   1  UNL1       -0.5446
     23 C         142.5728  139.5377  167.5308 C.3     1  UNL1        0.1022
     24 C         140.7508  141.1222  168.4898 C.ar    1  UNL1        0.1427
     25 C         140.3707  142.3154  169.3156 C.ar    1  UNL1        0.0372
     26 C         141.4325  143.1172  170.0082 C.ar    1  UNL1        0.0031
     27 C         142.8744  142.7259  169.8749 C.ar    1  UNL1       -0.0001
     28 C         143.2546  141.5327  169.0491 C.ar    1  UNL1        0.0001
     29 C         142.1927  140.7309  168.3566 C.ar    1  UNL1        0.0284
     30 O         139.6890  140.3204  167.7973 O.3     1  UNL1       -0.4507
     31 C         138.7077  139.5627  165.5141 C.ar    1  UNL1        0.1730
     32 C         138.3480  139.8660  164.0898 C.ar    1  UNL1        0.0401
     33 C         138.6101  141.2304  163.5244 C.ar    1  UNL1        0.0033
     34 C         139.2318  142.2915  164.3832 C.ar    1  UNL1        0.0033
     35 C         139.5915  141.9882  165.8075 C.ar    1  UNL1        0.0406
     36 C         139.3294  140.6237  166.3730 C.ar    1  UNL1        0.1789
     37 C         137.3559  138.0024  167.0916 C.3     1  UNL1        0.2526
     38 O         138.4456  138.1982  166.0796 O.3     1  UNL1       -0.4684
@<TRIPOS>UNITY_ATOM_ATTR
21 1
charge -1
@<TRIPOS>BOND
     1    37    38    1
     2    38    31    1
     3    31    32   ar
     4    32    33   ar
     5    33    34   ar
     6    34    35   ar
     7    35    36   ar
     8    36    30    1
     9    30    24    1
    10    24    25   ar
    11    25    26   ar
    12    26    27   ar
    13    27    28   ar
    14    28    29   ar
    15    29    23    1
    16    23     1    1
    17     1     2    1
    18     2     3    1
    19     3     4    1
    20     4     5    1
    21     5     6    1
    22     4     7    1
    23     7     8    1
    24     8     9    1
    25     9    10   am
    26    10    11    2
    27    10    14    1
    28    14    15   ar
    29    15    16   ar
    30    16    17   ar
    31    17    18   ar
    32    18    19   ar
    33    19    20    1
    34    20    21   ar
    35    20    22   ar
    36     9    12    1
    37    12    13    1
    38    36    31   ar
    39    29    24   ar
    40     6     1    1
    41    19    14   ar
    42    13     4    1
@<TRIPOS>MOLECULE
*****
 38 42 0 0 0
SMALL
GASTEIGER

@<TRIPOS>ATOM
      1 N         138.7188  141.8344  160.7434 N.3     1  UNL1       -0.2689
      2 C         139.7086  142.6670  161.5030 C.3     1  UNL1        0.0724
      3 C         139.9276  142.4225  162.9666 C.3     1  UNL1        0.0175
      4 C         139.1569  141.3453  163.6706 C.3     1  UNL1        0.0060
      5 C         138.1671  140.5127  162.9111 C.3     1  UNL1        0.0175
      6 C         137.9480  140.7572  161.4475 C.3     1  UNL1        0.0724
      7 C         140.1467  142.1780  164.4303 C.3     1  UNL1        0.0217
      8 C         140.3658  141.9335  165.8938 C.3     1  UNL1        0.0937
      9 N         139.5950  140.8563  166.5979 N.am    1  UNL1       -0.2761
     10 C         139.8141  140.6118  168.0616 C.2     1  UNL1        0.2490
     11 O         139.0434  139.5346  168.7656 O.2     1  UNL1       -0.2699
     12 C         138.6052  140.0237  165.8384 C.3     1  UNL1        0.0937
     13 C         138.3861  140.2682  164.3747 C.3     1  UNL1        0.0217
     14 C         140.8040  141.4444  168.8211 C.ar    1  UNL1        0.0547
     15 C         140.3920  142.7728  169.3830 C.ar    1  UNL1        0.0046
     16 C         141.3818  143.6054  170.1426 C.ar    1  UNL1        0.0001
     17 C         142.7837  143.1097  170.3403 C.ar    1  UNL1        0.0000
     18 C         143.1957  141.7813  169.7784 C.ar    1  UNL1        0.0013
     19 C         142.2058  140.9487  169.0188 C.ar    1  UNL1        0.0184
     20 C         142.6178  139.6203  168.4569 C.2     1  UNL1        0.0730
     21 O         142.9194  138.4767  169.3795 O.co2   1  UNL1       -0.5446
     22 O         142.7282  139.4356  166.9724 O.co2   1  UNL1       -0.5446
     23 C         138.4997  142.0789  159.2797 C.3     1  UNL1        0.1022
     24 C         138.3778  140.3954  157.3047 C.ar    1  UNL1        0.1427
     25 C         139.0661  139.5325  156.2888 C.ar    1  UNL1        0.0372
     26 C         140.5644  139.4904  156.2323 C.ar    1  UNL1        0.0031
     27 C         141.3745  140.3111  157.1916 C.ar    1  UNL1       -0.0001
     28 C         140.6863  141.1739  158.2074 C.ar    1  UNL1        0.0001
     29 C         139.1879  141.2161  158.2640 C.ar    1  UNL1        0.0284
     30 O         136.8794  140.4375  157.3612 O.3     1  UNL1       -0.4507
     31 C         134.7512  140.2465  155.8834 C.ar    1  UNL1        0.1730
     32 C         133.9666  140.6651  154.6754 C.ar    1  UNL1        0.0401
     33 C         134.5256  141.6934  153.7373 C.ar    1  UNL1        0.0033
     34 C         135.8693  142.3031  154.0072 C.ar    1  UNL1        0.0033
     35 C         136.6539  141.8845  155.2151 C.ar    1  UNL1        0.0406
     36 C         136.0948  140.8561  156.1532 C.ar    1  UNL1        0.1789
     37 C         132.9382  139.5085  157.5918 C.3     1  UNL1        0.2526
     38 O         134.1921  139.2181  156.8215 O.3     1  UNL1       -0.4684
@<TRIPOS>UNITY_ATOM_ATTR
21 1
charge -1
@<TRIPOS>BOND
     1    37    38    1
     2    38    31    1
     3    31    32   ar
     4    32    33   ar
     5    33    34   ar
     6    34    35   ar
     7    35    36   ar
     8    36    30    1
     9    30    24    1
    10    24    25   ar
    11    25    26   ar
    12    26    27   ar
    13    27    28   ar
    14    28    29   ar
    15    29    23    1
    16    23     1    1
    17     1     2    1
    18     2     3    1
    19     3     4    1
    20     4     5    1
    21     5     6    1
    22     4     7    1
    23     7     8    1
    24     8     9    1
    25     9    10   am
    26    10    11    2
    27    10    14    1
    28    14    15   ar
    29    15    16   ar
    30    16    17   ar
    31    17    18   ar
    32    18    19   ar
    33    19    20    1
    34    20    21   ar
    35    20    22   ar
    36     9    12    1
    37    12    13    1
    38    36    31   ar
    39    29    24   ar
    40     6     1    1
    41    19    14   ar
    42    13     4    1
@<TRIPOS>MOLECULE
*****
 38 42 0 0 0
SMALL
GASTEIGER

@<TRIPOS>ATOM
      1 N         139.5323  139.8615  166.4179 N.3     1  UNL1       -0.2689
      2 C         140.6578  139.3528  165.5668 C.3     1  UNL1        0.0724
      3 C         140.5218  139.3397  164.0731 C.3     1  UNL1        0.0175
      4 C         139.2603  139.8354  163.4305 C.3     1  UNL1        0.0060
      5 C         138.1348  140.3440  164.2816 C.3     1  UNL1        0.0175
      6 C         138.2708  140.3571  165.7753 C.3     1  UNL1        0.0724
      7 C         140.3858  139.3267  162.5793 C.3     1  UNL1        0.0217
      8 C         140.2498  139.3136  161.0855 C.3     1  UNL1        0.0937
      9 N         138.9883  139.8092  160.4429 N.am    1  UNL1       -0.2761
     10 C         138.8523  139.7961  158.9491 C.2     1  UNL1        0.2490
     11 O         137.5908  140.2917  158.3065 O.2     1  UNL1       -0.2699
     12 C         137.8628  140.3179  161.2940 C.3     1  UNL1        0.0937
     13 C         137.9988  140.3310  162.7878 C.3     1  UNL1        0.0217
     14 C         139.9779  139.2874  158.0980 C.ar    1  UNL1        0.0547
     15 C         139.9914  137.8561  157.6495 C.ar    1  UNL1        0.0046
     16 C         141.1169  137.3474  156.7984 C.ar    1  UNL1        0.0001
     17 C         142.2290  138.2701  156.3957 C.ar    1  UNL1        0.0000
     18 C         142.2154  139.7014  156.8442 C.ar    1  UNL1        0.0013
     19 C         141.0898  140.2101  157.6953 C.ar    1  UNL1        0.0184
     20 C         141.0763  141.6414  158.1438 C.2     1  UNL1        0.0730
     21 O         140.3243  142.6688  157.3508 O.co2   1  UNL1       -0.5446
     22 O         141.8148  142.0453  159.3854 O.co2   1  UNL1       -0.5446
     23 C         139.6682  139.8746  167.9117 C.3     1  UNL1        0.1022
     24 C         141.3539  141.8287  168.2116 C.ar    1  UNL1        0.1427
     25 C         142.5905  142.3916  168.8473 C.ar    1  UNL1        0.0372
     26 C         143.3779  141.5632  169.8187 C.ar    1  UNL1        0.0031
     27 C         142.9288  140.1720  170.1546 C.ar    1  UNL1       -0.0001
     28 C         141.6923  139.6091  169.5189 C.ar    1  UNL1        0.0001
     29 C         140.9048  140.4375  168.5474 C.ar    1  UNL1        0.0284
     30 O         140.5665  142.6570  167.2401 O.3     1  UNL1       -0.4507
     31 C         140.1429  143.4199  164.7930 C.ar    1  UNL1        0.1730
     32 C         140.6196  143.5728  163.3790 C.ar    1  UNL1        0.0401
     33 C         141.9965  143.1157  162.9981 C.ar    1  UNL1        0.0033
     34 C         142.8968  142.5057  164.0312 C.ar    1  UNL1        0.0033
     35 C         142.4202  142.3528  165.4452 C.ar    1  UNL1        0.0406
     36 C         141.0432  142.8099  165.8261 C.ar    1  UNL1        0.1789
     37 C         137.7188  144.0650  164.1164 C.3     1  UNL1        0.2526
     38 O         138.7659  143.8771  165.1738 O.3     1  UNL1       -0.4684
@<TRIPOS>UNITY_ATOM_ATTR
21 1
charge -1
@<TRIPOS>BOND
     1    37    38    1
     2    38    31    1
     3    31    32   ar
     4    32    33   ar
     5    33    34   ar
     6    34    35   ar
     7    35    36   ar
     8    36    30    1
     9    30    24    1
    10    24    25   ar
    11    25    26   ar
    12    26    27   ar
    13    27    28   ar
    14    28    29   ar
    15    29    23    1
    16    23     1    1
    17     1     2    1
    18     2     3    1
    19     3     4    1
    20     4     5    1
    21     5     6    1
    22     4     7    1
    23     7     8    1
    24     8     9    1
    25     9    10   am
    26    10    11    2
    27    10    14    1
    28    14    15   ar
    29    15    16   ar
    30    16    17   ar
    31    17    18   ar
    32    18    19   ar
    33    19    20    1
    34    20    21   ar
    35    20    22   ar
    36     9    12    1
    37    12    13    1
    38    36    31   ar
    39    29    24   ar
    40     6     1    1
    41    19    14   ar
    42    13     4    1
@<TRIPOS>MOLECULE
*****
 38 42 0 0 0
SMALL
GASTEIGER

@<TRIPOS>ATOM
      1 N         138.4640  140.6331  161.2769 N.3     1  UNL1       -0.2689
      2 C         139.5383  141.5080  161.8516 C.3     1  UNL1        0.0724
      3 C         139.8219  141.4783  163.3242 C.3     1  UNL1        0.0175
      4 C         139.0311  140.5736  164.2221 C.3     1  UNL1        0.0060
      5 C         137.9568  139.6987  163.6475 C.3     1  UNL1        0.0175
      6 C         137.6732  139.7284  162.1748 C.3     1  UNL1        0.0724
      7 C         140.1055  141.4486  164.7969 C.3     1  UNL1        0.0217
      8 C         140.3891  141.4188  166.2695 C.3     1  UNL1        0.0937
      9 N         139.5984  140.5142  167.1674 N.am    1  UNL1       -0.2761
     10 C         139.8820  140.4845  168.6401 C.2     1  UNL1        0.2490
     11 O         139.0913  139.5798  169.5381 O.2     1  UNL1       -0.2699
     12 C         138.5240  139.6393  166.5928 C.3     1  UNL1        0.0937
     13 C         138.2404  139.6690  165.1201 C.3     1  UNL1        0.0217
     14 C         140.9563  141.3594  169.2148 C.ar    1  UNL1        0.0547
     15 C         140.6296  142.7542  169.6596 C.ar    1  UNL1        0.0046
     16 C         141.7040  143.6291  170.2343 C.ar    1  UNL1        0.0001
     17 C         143.1051  143.1093  170.3642 C.ar    1  UNL1        0.0000
     18 C         143.4317  141.7145  169.9193 C.ar    1  UNL1        0.0013
     19 C         142.3573  140.8395  169.3446 C.ar    1  UNL1        0.0184
     20 C         142.6840  139.4448  168.8998 C.2     1  UNL1        0.0730
     21 O         142.8467  139.1420  167.4397 O.co2   1  UNL1       -0.5446
     22 O         142.8479  138.3528  169.9151 O.co2   1  UNL1       -0.5446
     23 C         138.1803  140.6628  159.8042 C.3     1  UNL1        0.1022
     24 C         140.2884  140.5501  158.2899 C.ar    1  UNL1        0.1427
     25 C         141.2525  141.2165  157.3537 C.ar    1  UNL1        0.0372
     26 C         141.0726  142.6619  156.9957 C.ar    1  UNL1        0.0031
     27 C         139.9286  143.4411  157.5738 C.ar    1  UNL1       -0.0001
     28 C         138.9646  142.7747  158.5100 C.ar    1  UNL1        0.0001
     29 C         139.1444  141.3292  158.8680 C.ar    1  UNL1        0.0284
     30 O         140.4683  139.1046  158.6479 O.3     1  UNL1       -0.4507
     31 C         142.8733  138.6168  159.5010 C.ar    1  UNL1        0.1730
     32 C         143.8041  138.2295  160.6117 C.ar    1  UNL1        0.0401
     33 C         143.2606  137.9425  161.9799 C.ar    1  UNL1        0.0033
     34 C         141.7863  138.0428  162.2376 C.ar    1  UNL1        0.0033
     35 C         140.8555  138.4302  161.1269 C.ar    1  UNL1        0.0406
     36 C         141.3991  138.7172  159.7586 C.ar    1  UNL1        0.1789
     37 C         143.1358  137.9605  157.0009 C.3     1  UNL1        0.2526
     38 O         143.4169  138.9039  158.1327 O.3     1  UNL1       -0.4684
@<TRIPOS>UNITY_ATOM_ATTR
21 1
charge -1
@<TRIPOS>BOND
     1    37    38    1
     2    38    31    1
     3    31    32   ar
     4    32    33   ar
     5    33    34   ar
     6    34    35   ar
     7    35    36   ar
     8    36    30    1
     9    30    24    1
    10    24    25   ar
    11    25    26   ar
    12    26    27   ar
    13    27    28   ar
    14    28    29   ar
    15    29    23    1
    16    23     1    1
    17     1     2    1
    18     2     3    1
    19     3     4    1
    20     4     5    1
    21     5     6    1
    22     4     7    1
    23     7     8    1
    24     8     9    1
    25     9    10   am
    26    10    11    2
    27    10    14    1
    28    14    15   ar
    29    15    16   ar
    30    16    17   ar
    31    17    18   ar
    32    18    19   ar
    33    19    20    1
    34    20    21   ar
    35    20    22   ar
    36     9    12    1
    37    12    13    1
    38    36    31   ar
    39    29    24   ar
    40     6     1    1
    41    19    14   ar
    42    13     4    1
