@<TRIPOS>MOLECULE
*****
 22 23 0 0 0
SMALL
GASTEIGER

@<TRIPOS>ATOM
      1 C         140.0127  141.2480  167.2086 C.ar    1  UNL1        0.0281
      2 C         139.4296  139.8868  167.4471 C.ar    1  UNL1        0.0040
      3 C         138.5126  139.2750  166.4299 C.ar    1  UNL1        0.0713
      4 C         138.1787  140.0244  165.1742 C.ar    1  UNL1        0.0070
      5 C         138.7618  141.3856  164.9357 C.ar    1  UNL1        0.0372
      6 C         139.6789  141.9974  165.9530 C.ar    1  UNL1        0.1425
      7 C         137.9294  137.9136  166.6684 C.3     1  UNL1        0.4186
      8 F         137.3462  136.5524  166.9070 F       1  UNL1       -0.1659
      9 F         137.1208  138.4597  167.8077 F       1  UNL1       -0.1659
     10 F         138.7380  137.3676  165.5292 F       1  UNL1       -0.1659
     11 C         140.9298  141.8598  168.2259 C.3     1  UNL1        0.0987
     12 C         140.0097  143.0607  170.3381 C.3     1  UNL1        0.0861
     13 N         140.5309  143.1212  168.9328 N.3     1  UNL1       -0.2925
     14 H         141.3548  143.7223  168.9499 H       1  UNL1        0.1236
     15 O         140.2620  143.3588  165.7144 O.3     1  UNL1       -0.4538
     16 C         140.3593  143.8989  164.3185 C.ar    1  UNL1        0.1453
     17 C         139.3143  144.8450  163.8058 C.ar    1  UNL1        0.0372
     18 C         139.4116  145.3852  162.4098 C.ar    1  UNL1       -0.0011
     19 C         140.5539  144.9792  161.5265 C.ar    1  UNL1       -0.0217
     20 C         140.6513  145.5194  160.1305 C.3     1  UNL1        0.0310
     21 C         141.5990  144.0331  162.0391 C.ar    1  UNL1       -0.0011
     22 C         141.5017  143.4930  163.4351 C.ar    1  UNL1        0.0372
@<TRIPOS>BOND
     1    12    13    1
     2    13    11    1
     3    11     1    1
     4     1     2   ar
     5     2     3   ar
     6     3     7    1
     7     7     8    1
     8     7     9    1
     9     7    10    1
    10     3     4   ar
    11     4     5   ar
    12     5     6   ar
    13     6    15    1
    14    15    16    1
    15    16    17   ar
    16    17    18   ar
    17    18    19   ar
    18    19    20    1
    19    19    21   ar
    20    21    22   ar
    21     6     1   ar
    22    22    16   ar
    23    13    14    1
@<TRIPOS>MOLECULE
*****
 22 23 0 0 0
SMALL
GASTEIGER

@<TRIPOS>ATOM
      1 C         143.0834  140.9624  166.2192 C.ar    1  UNL1        0.0281
      2 C         143.1327  142.0382  167.2632 C.ar    1  UNL1        0.0040
      3 C         142.9369  141.6898  168.7090 C.ar    1  UNL1        0.0713
      4 C         142.6917  140.2656  169.1107 C.ar    1  UNL1        0.0070
      5 C         142.6423  139.1898  168.0666 C.ar    1  UNL1        0.0372
      6 C         142.8382  139.5382  166.6209 C.ar    1  UNL1        0.1425
      7 C         142.9862  142.7657  169.7531 C.3     1  UNL1        0.4186
      8 F         143.0355  143.8416  170.7971 F       1  UNL1       -0.1659
      9 F         144.4143  142.4141  170.0479 F       1  UNL1       -0.1659
     10 F         141.5581  143.1173  169.4583 F       1  UNL1       -0.1659
     11 C         143.2793  141.3108  164.7734 C.3     1  UNL1        0.0987
     12 C         145.6857  141.4577  163.8050 C.3     1  UNL1        0.0861
     13 N         144.4081  140.6962  164.0001 N.3     1  UNL1       -0.2925
     14 H         144.6527  139.8279  164.4761 H       1  UNL1        0.1236
     15 O         142.7889  138.4622  165.5768 O.3     1  UNL1       -0.4538
     16 C         141.5932  138.3426  164.6791 C.ar    1  UNL1        0.1453
     17 C         141.7645  137.8969  163.2571 C.ar    1  UNL1        0.0372
     18 C         140.5688  137.7772  162.3594 C.ar    1  UNL1       -0.0011
     19 C         139.2017  138.1032  162.8836 C.ar    1  UNL1       -0.0217
     20 C         138.0060  137.9835  161.9859 C.3     1  UNL1        0.0310
     21 C         139.0304  138.5488  164.3056 C.ar    1  UNL1       -0.0011
     22 C         140.2261  138.6685  165.2033 C.ar    1  UNL1        0.0372
@<TRIPOS>BOND
     1    12    13    1
     2    13    11    1
     3    11     1    1
     4     1     2   ar
     5     2     3   ar
     6     3     7    1
     7     7     8    1
     8     7     9    1
     9     7    10    1
    10     3     4   ar
    11     4     5   ar
    12     5     6   ar
    13     6    15    1
    14    15    16    1
    15    16    17   ar
    16    17    18   ar
    17    18    19   ar
    18    19    20    1
    19    19    21   ar
    20    21    22   ar
    21     6     1   ar
    22    22    16   ar
    23    13    14    1
@<TRIPOS>MOLECULE
*****
 22 23 0 0 0
SMALL
GASTEIGER

@<TRIPOS>ATOM
      1 C         139.9879  138.9195  164.1352 C.ar    1  UNL1        0.0281
      2 C         140.9275  138.6148  163.0064 C.ar    1  UNL1        0.0040
      3 C         142.3844  138.3895  163.2833 C.ar    1  UNL1        0.0713
      4 C         142.9016  138.4688  164.6891 C.ar    1  UNL1        0.0070
      5 C         141.9620  138.7734  165.8178 C.ar    1  UNL1        0.0372
      6 C         140.5051  138.9988  165.5409 C.ar    1  UNL1        0.1425
      7 C         143.3241  138.0848  162.1545 C.3     1  UNL1        0.4186
      8 F         144.2637  137.7802  161.0256 F       1  UNL1       -0.1659
      9 F         142.1998  137.4517  161.3895 F       1  UNL1       -0.1659
     10 F         144.4484  138.7179  162.9194 F       1  UNL1       -0.1659
     11 C         138.5310  139.1448  163.8582 C.3     1  UNL1        0.0987
     12 C         138.0661  141.6999  163.9299 C.3     1  UNL1        0.0861
     13 N         137.8249  140.3201  164.4665 N.3     1  UNL1       -0.2925
     14 H         136.8247  140.1406  164.3785 H       1  UNL1        0.1236
     15 O         139.5654  139.3034  166.6698 O.3     1  UNL1       -0.4538
     16 C         139.7960  140.5081  167.5331 C.ar    1  UNL1        0.1453
     17 C         139.5517  140.4295  169.0111 C.ar    1  UNL1        0.0372
     18 C         139.7822  141.6343  169.8745 C.ar    1  UNL1       -0.0011
     19 C         140.2570  142.9176  169.2600 C.ar    1  UNL1       -0.0217
     20 C         140.4876  144.1223  170.1234 C.3     1  UNL1        0.0310
     21 C         140.5013  142.9962  167.7821 C.ar    1  UNL1       -0.0011
     22 C         140.2708  141.7915  166.9187 C.ar    1  UNL1        0.0372
@<TRIPOS>BOND
     1    12    13    1
     2    13    11    1
     3    11     1    1
     4     1     2   ar
     5     2     3   ar
     6     3     7    1
     7     7     8    1
     8     7     9    1
     9     7    10    1
    10     3     4   ar
    11     4     5   ar
    12     5     6   ar
    13     6    15    1
    14    15    16    1
    15    16    17   ar
    16    17    18   ar
    17    18    19   ar
    18    19    20    1
    19    19    21   ar
    20    21    22   ar
    21     6     1   ar
    22    22    16   ar
    23    13    14    1
@<TRIPOS>MOLECULE
*****
 22 23 0 0 0
SMALL
GASTEIGER

@<TRIPOS>ATOM
      1 C         141.3300  139.6138  166.6989 C.ar    1  UNL1        0.0281
      2 C         142.3334  139.4531  167.8023 C.ar    1  UNL1        0.0040
      3 C         141.9171  139.6525  169.2295 C.ar    1  UNL1        0.0713
      4 C         140.4975  140.0125  169.5534 C.ar    1  UNL1        0.0070
      5 C         139.4941  140.1732  168.4501 C.ar    1  UNL1        0.0372
      6 C         139.9104  139.9738  167.0229 C.ar    1  UNL1        0.1425
      7 C         142.9206  139.4918  170.3328 C.3     1  UNL1        0.4186
      8 F         143.9240  139.3311  171.4361 F       1  UNL1       -0.1659
      9 F         143.1464  140.9746  170.3434 F       1  UNL1       -0.1659
     10 F         142.6949  138.0089  170.3222 F       1  UNL1       -0.1659
     11 C         141.7463  139.4145  165.2717 C.3     1  UNL1        0.0987
     12 C         141.0792  137.0742  164.3617 C.3     1  UNL1        0.0861
     13 N         140.9125  138.5649  164.3590 N.3     1  UNL1       -0.2925
     14 H         139.9372  138.7526  164.5912 H       1  UNL1        0.1236
     15 O         138.9069  140.1345  165.9195 O.3     1  UNL1       -0.4538
     16 C         138.8553  141.4105  165.1326 C.ar    1  UNL1        0.1453
     17 C         137.9213  141.5346  163.9654 C.ar    1  UNL1        0.0372
     18 C         137.8698  142.8105  163.1785 C.ar    1  UNL1       -0.0011
     19 C         138.7522  143.9624  163.5587 C.ar    1  UNL1       -0.0217
     20 C         138.7006  145.2383  162.7718 C.3     1  UNL1        0.0310
     21 C         139.6861  143.8383  164.7259 C.ar    1  UNL1       -0.0011
     22 C         139.7377  142.5623  165.5128 C.ar    1  UNL1        0.0372
@<TRIPOS>BOND
     1    12    13    1
     2    13    11    1
     3    11     1    1
     4     1     2   ar
     5     2     3   ar
     6     3     7    1
     7     7     8    1
     8     7     9    1
     9     7    10    1
    10     3     4   ar
    11     4     5   ar
    12     5     6   ar
    13     6    15    1
    14    15    16    1
    15    16    17   ar
    16    17    18   ar
    17    18    19   ar
    18    19    20    1
    19    19    21   ar
    20    21    22   ar
    21     6     1   ar
    22    22    16   ar
    23    13    14    1
@<TRIPOS>MOLECULE
*****
 22 23 0 0 0
SMALL
GASTEIGER

@<TRIPOS>ATOM
      1 C         138.8637  141.5588  163.7588 C.ar    1  UNL1        0.0281
      2 C         138.9456  142.8247  162.9583 C.ar    1  UNL1        0.0040
      3 C         139.4712  144.0792  163.5905 C.ar    1  UNL1        0.0713
      4 C         139.9149  144.0680  165.0233 C.ar    1  UNL1        0.0070
      5 C         139.8330  142.8021  165.8239 C.ar    1  UNL1        0.0372
      6 C         139.3074  141.5476  165.1916 C.ar    1  UNL1        0.1425
      7 C         139.5531  145.3451  162.7899 C.3     1  UNL1        0.4186
      8 F         139.6349  146.6109  161.9893 F       1  UNL1       -0.1659
      9 F         138.0890  145.2438  162.4801 F       1  UNL1       -0.1659
     10 F         141.0172  145.4464  163.0997 F       1  UNL1       -0.1659
     11 C         138.3381  140.3042  163.1265 C.3     1  UNL1        0.0987
     12 C         138.8545  137.7789  163.4518 C.3     1  UNL1        0.0861
     13 N         139.2468  139.1278  162.9261 N.3     1  UNL1       -0.2925
     14 H         139.3778  139.0250  161.9198 H       1  UNL1        0.1236
     15 O         139.2255  140.2817  165.9922 O.3     1  UNL1       -0.4538
     16 C         140.1686  140.0557  167.1365 C.ar    1  UNL1        0.1453
     17 C         141.6077  139.7278  166.8689 C.ar    1  UNL1        0.0372
     18 C         142.5508  139.5018  168.0132 C.ar    1  UNL1       -0.0011
     19 C         142.0548  139.6036  169.4252 C.ar    1  UNL1       -0.0217
     20 C         142.9979  139.3776  170.5695 C.3     1  UNL1        0.0310
     21 C         140.6158  139.9315  169.6928 C.ar    1  UNL1       -0.0011
     22 C         139.6726  140.1575  168.5485 C.ar    1  UNL1        0.0372
@<TRIPOS>BOND
     1    12    13    1
     2    13    11    1
     3    11     1    1
     4     1     2   ar
     5     2     3   ar
     6     3     7    1
     7     7     8    1
     8     7     9    1
     9     7    10    1
    10     3     4   ar
    11     4     5   ar
    12     5     6   ar
    13     6    15    1
    14    15    16    1
    15    16    17   ar
    16    17    18   ar
    17    18    19   ar
    18    19    20    1
    19    19    21   ar
    20    21    22   ar
    21     6     1   ar
    22    22    16   ar
    23    13    14    1
@<TRIPOS>MOLECULE
*****
 22 23 0 0 0
SMALL
GASTEIGER

@<TRIPOS>ATOM
      1 C         138.5538  142.0823  163.9127 C.ar    1  UNL1        0.0281
      2 C         138.5676  143.3064  163.0459 C.ar    1  UNL1        0.0040
      3 C         139.4911  144.4435  163.3686 C.ar    1  UNL1        0.0713
      4 C         140.4007  144.3565  164.5581 C.ar    1  UNL1        0.0070
      5 C         140.3869  143.1324  165.4249 C.ar    1  UNL1        0.0372
      6 C         139.4634  141.9953  165.1022 C.ar    1  UNL1        0.1425
      7 C         139.5049  145.6676  162.5018 C.3     1  UNL1        0.4186
      8 F         139.5188  146.8917  161.6349 F       1  UNL1       -0.1659
      9 F         140.9827  145.8047  162.7189 F       1  UNL1       -0.1659
     10 F         138.0271  145.5306  162.2846 F       1  UNL1       -0.1659
     11 C         137.6303  140.9451  163.5900 C.3     1  UNL1        0.0987
     12 C         137.8446  140.0220  161.1710 C.3     1  UNL1        0.0861
     13 N         137.0796  140.7968  162.2027 N.3     1  UNL1       -0.2925
     14 H         136.1690  140.3462  162.2940 H       1  UNL1        0.1236
     15 O         139.4496  140.7712  165.9691 O.3     1  UNL1       -0.4538
     16 C         140.7075  139.9785  166.1676 C.ar    1  UNL1        0.1453
     17 C         141.2005  139.0695  165.0809 C.ar    1  UNL1        0.0372
     18 C         142.4583  138.2768  165.2794 C.ar    1  UNL1       -0.0011
     19 C         143.2232  138.3931  166.5645 C.ar    1  UNL1       -0.0217
     20 C         144.4811  137.6004  166.7630 C.3     1  UNL1        0.0310
     21 C         142.7303  139.3021  167.6511 C.ar    1  UNL1       -0.0011
     22 C         141.4724  140.0948  167.4526 C.ar    1  UNL1        0.0372
@<TRIPOS>BOND
     1    12    13    1
     2    13    11    1
     3    11     1    1
     4     1     2   ar
     5     2     3   ar
     6     3     7    1
     7     7     8    1
     8     7     9    1
     9     7    10    1
    10     3     4   ar
    11     4     5   ar
    12     5     6   ar
    13     6    15    1
    14    15    16    1
    15    16    17   ar
    16    17    18   ar
    17    18    19   ar
    18    19    20    1
    19    19    21   ar
    20    21    22   ar
    21     6     1   ar
    22    22    16   ar
    23    13    14    1
@<TRIPOS>MOLECULE
*****
 22 23 0 0 0
SMALL
GASTEIGER

@<TRIPOS>ATOM
      1 C         138.6479  141.4475  164.7331 C.ar    1  UNL1        0.0281
      2 C         137.9581  140.1985  165.1960 C.ar    1  UNL1        0.0040
      3 C         138.6060  139.3219  166.2264 C.ar    1  UNL1        0.0713
      4 C         139.9437  139.6942  166.7939 C.ar    1  UNL1        0.0070
      5 C         140.6334  140.9431  166.3310 C.ar    1  UNL1        0.0372
      6 C         139.9855  141.8198  165.3006 C.ar    1  UNL1        0.1425
      7 C         137.9162  138.0729  166.6893 C.3     1  UNL1        0.4186
      8 F         137.2264  136.8239  167.1523 F       1  UNL1       -0.1659
      9 F         137.3742  138.8123  167.8765 F       1  UNL1       -0.1659
     10 F         138.4582  137.3335  165.5021 F       1  UNL1       -0.1659
     11 C         138.0000  142.3241  163.7027 C.3     1  UNL1        0.0987
     12 C         138.4066  144.7287  162.8068 C.3     1  UNL1        0.0861
     13 N         137.9552  143.8100  163.9032 N.3     1  UNL1       -0.2925
     14 H         136.9854  144.0503  164.1082 H       1  UNL1        0.1236
     15 O         140.6753  143.0688  164.8377 O.3     1  UNL1       -0.4538
     16 C         141.7177  142.9950  163.7617 C.ar    1  UNL1        0.1453
     17 C         142.8050  144.0265  163.6987 C.ar    1  UNL1        0.0372
     18 C         143.8474  143.9527  162.6227 C.ar    1  UNL1       -0.0011
     19 C         143.8026  142.8475  161.6095 C.ar    1  UNL1       -0.0217
     20 C         144.8450  142.7737  160.5335 C.3     1  UNL1        0.0310
     21 C         142.7154  141.8160  161.6724 C.ar    1  UNL1       -0.0011
     22 C         141.6729  141.8898  162.7485 C.ar    1  UNL1        0.0372
@<TRIPOS>BOND
     1    12    13    1
     2    13    11    1
     3    11     1    1
     4     1     2   ar
     5     2     3   ar
     6     3     7    1
     7     7     8    1
     8     7     9    1
     9     7    10    1
    10     3     4   ar
    11     4     5   ar
    12     5     6   ar
    13     6    15    1
    14    15    16    1
    15    16    17   ar
    16    17    18   ar
    17    18    19   ar
    18    19    20    1
    19    19    21   ar
    20    21    22   ar
    21     6     1   ar
    22    22    16   ar
    23    13    14    1
@<TRIPOS>MOLECULE
*****
 22 23 0 0 0
SMALL
GASTEIGER

@<TRIPOS>ATOM
      1 C         140.0152  141.1579  167.3186 C.ar    1  UNL1        0.0281
      2 C         139.2803  139.8906  167.6406 C.ar    1  UNL1        0.0040
      3 C         138.4626  139.2086  166.5841 C.ar    1  UNL1        0.0713
      4 C         138.3798  139.7940  165.2055 C.ar    1  UNL1        0.0070
      5 C         139.1147  141.0613  164.8835 C.ar    1  UNL1        0.0372
      6 C         139.9324  141.7433  165.9400 C.ar    1  UNL1        0.1425
      7 C         137.7276  137.9412  166.9062 C.3     1  UNL1        0.4186
      8 F         136.9928  136.6739  167.2282 F       1  UNL1       -0.1659
      9 F         138.3607  137.2732  165.7218 F       1  UNL1       -0.1659
     10 F         137.0946  138.6093  168.0906 F       1  UNL1       -0.1659
     11 C         140.8329  141.8399  168.3751 C.3     1  UNL1        0.0987
     12 C         143.2469  142.1011  169.2995 C.3     1  UNL1        0.0861
     13 N         142.2918  142.1001  168.1429 N.3     1  UNL1       -0.2925
     14 H         142.6183  141.3858  167.4920 H       1  UNL1        0.1236
     15 O         140.6673  143.0107  165.6180 O.3     1  UNL1       -0.4538
     16 C         141.6888  143.0269  164.5197 C.ar    1  UNL1        0.1453
     17 C         143.0962  142.5885  164.7979 C.ar    1  UNL1        0.0372
     18 C         144.1177  142.6047  163.6997 C.ar    1  UNL1       -0.0011
     19 C         143.7320  143.0593  162.3233 C.ar    1  UNL1       -0.0217
     20 C         144.7536  143.0756  161.2251 C.3     1  UNL1        0.0310
     21 C         142.3248  143.4977  162.0451 C.ar    1  UNL1       -0.0011
     22 C         141.3031  143.4815  163.1433 C.ar    1  UNL1        0.0372
@<TRIPOS>BOND
     1    12    13    1
     2    13    11    1
     3    11     1    1
     4     1     2   ar
     5     2     3   ar
     6     3     7    1
     7     7     8    1
     8     7     9    1
     9     7    10    1
    10     3     4   ar
    11     4     5   ar
    12     5     6   ar
    13     6    15    1
    14    15    16    1
    15    16    17   ar
    16    17    18   ar
    17    18    19   ar
    18    19    20    1
    19    19    21   ar
    20    21    22   ar
    21     6     1   ar
    22    22    16   ar
    23    13    14    1
@<TRIPOS>MOLECULE
*****
 22 23 0 0 0
SMALL
GASTEIGER

@<TRIPOS>ATOM
      1 C         139.9174  140.2323  165.9612 C.ar    1  UNL1        0.0281
      2 C         139.5460  139.9281  167.3823 C.ar    1  UNL1        0.0040
      3 C         140.5124  140.2260  168.4902 C.ar    1  UNL1        0.0713
      4 C         141.8500  140.8281  168.1770 C.ar    1  UNL1        0.0070
      5 C         142.2213  141.1323  166.7559 C.ar    1  UNL1        0.0372
      6 C         141.2550  140.8344  165.6480 C.ar    1  UNL1        0.1425
      7 C         140.1410  139.9218  169.9113 C.3     1  UNL1        0.4186
      8 F         139.7696  139.6176  171.3324 F       1  UNL1       -0.1659
      9 F         141.3878  139.1017  170.0616 F       1  UNL1       -0.1659
     10 F         138.8941  140.7419  169.7611 F       1  UNL1       -0.1659
     11 C         138.9510  139.9344  164.8533 C.3     1  UNL1        0.0987
     12 C         137.8227  142.2540  164.5433 C.3     1  UNL1        0.0861
     13 N         137.7127  140.7657  164.6944 N.3     1  UNL1       -0.2925
     14 H         137.2306  140.4203  163.8645 H       1  UNL1        0.1236
     15 O         141.6264  141.1386  164.2268 O.3     1  UNL1       -0.4538
     16 C         141.1777  142.4217  163.5926 C.ar    1  UNL1        0.1453
     17 C         141.2863  143.7114  164.3510 C.ar    1  UNL1        0.0372
     18 C         140.8376  144.9945  163.7167 C.ar    1  UNL1       -0.0011
     19 C         140.2803  144.9880  162.3241 C.ar    1  UNL1       -0.0217
     20 C         139.8315  146.2711  161.6899 C.3     1  UNL1        0.0310
     21 C         140.1716  143.6984  161.5658 C.ar    1  UNL1       -0.0011
     22 C         140.6203  142.4152  162.2000 C.ar    1  UNL1        0.0372
@<TRIPOS>BOND
     1    12    13    1
     2    13    11    1
     3    11     1    1
     4     1     2   ar
     5     2     3   ar
     6     3     7    1
     7     7     8    1
     8     7     9    1
     9     7    10    1
    10     3     4   ar
    11     4     5   ar
    12     5     6   ar
    13     6    15    1
    14    15    16    1
    15    16    17   ar
    16    17    18   ar
    17    18    19   ar
    18    19    20    1
    19    19    21   ar
    20    21    22   ar
    21     6     1   ar
    22    22    16   ar
    23    13    14    1
