@<TRIPOS>MOLECULE
*****
 37 41 0 0 0
SMALL
GASTEIGER

@<TRIPOS>ATOM
      1 C         142.6961  139.9578  159.5992 C.3     1  UNL1        0.0806
      2 C         142.5736  140.0034  158.1049 C.3     1  UNL1        0.0108
      3 C         142.5583  138.7287  157.3144 C.3     1  UNL1        0.0165
      4 C         142.6656  137.4084  158.0183 C.3     1  UNL1        0.0580
      5 C         142.7881  137.3628  159.5125 C.3     1  UNL1        0.0208
      6 C         142.8033  138.6376  160.3030 C.3     1  UNL1        0.0323
      7 C         142.9259  138.5920  161.7973 C.ar    1  UNL1       -0.0220
      8 C         141.8407  137.9631  162.6200 C.ar    1  UNL1       -0.0038
      9 C         141.9632  137.9175  164.1142 C.ar    1  UNL1        0.0064
     10 C         143.1710  138.5009  164.7859 C.ar    1  UNL1        0.0345
     11 BR        143.2935  138.4553  166.2802 Br      1  UNL1       -0.0490
     12 C         144.2562  139.1297  163.9632 C.ar    1  UNL1        0.0064
     13 C         144.1336  139.1753  162.4690 C.ar    1  UNL1       -0.0038
     14 N         142.6504  136.1336  157.2278 N.3     1  UNL1       -0.2697
     15 C         143.4627  134.9582  157.6845 C.3     1  UNL1        0.1046
     16 C         143.4474  133.6834  156.8941 C.3     1  UNL1        0.1595
     17 O         142.6199  133.5842  155.6468 O.3     1  UNL1       -0.3508
     18 C         141.8077  134.7596  155.1902 C.3     1  UNL1        0.1595
     19 C         141.8229  136.0343  155.9806 C.3     1  UNL1        0.1046
     20 O         143.8513  142.1956  160.2378 O.2     1  UNL1       -0.2751
     21 C         142.7113  141.2325  160.3897 C.2     1  UNL1        0.2227
     22 N         141.5866  141.5442  161.3320 N.am    1  UNL1       -0.2986
     23 H         140.8385  140.9121  161.4316 H       1  UNL1        0.1500
     24 C         141.6019  142.8189  162.1224 C.3     1  UNL1        0.1170
     25 C         142.2630  142.8590  163.4682 C.ar    1  UNL1       -0.0002
     26 C         143.5552  143.5994  163.6474 C.ar    1  UNL1       -0.0001
     27 C         144.2163  143.6395  164.9933 C.ar    1  UNL1        0.0294
     28 C         143.5852  142.9391  166.1600 C.ar    1  UNL1        0.1401
     29 F         144.2463  142.9792  167.5058 F       1  UNL1       -0.2042
     30 C         142.2930  142.1988  165.9809 C.ar    1  UNL1        0.0294
     31 C         141.6319  142.1587  164.6351 C.ar    1  UNL1       -0.0001
     32 C         140.9560  144.0536  161.5670 C.ar    1  UNL1        0.0028
     33 C         140.3325  145.0553  162.4932 C.ar    1  UNL1        0.0183
     34 C         139.6866  146.2899  161.9378 C.ar    1  UNL1        0.0986
     35 N         139.6642  146.5228  160.4561 N.ar    1  UNL1       -0.2423
     36 C         140.2877  145.5211  159.5299 C.ar    1  UNL1        0.0986
     37 C         140.9335  144.2865  160.0854 C.ar    1  UNL1        0.0183
@<TRIPOS>BOND
     1    20    21    2
     2    21    22   am
     3    22    24    1
     4    24    32    1
     5    32    33   ar
     6    33    34   ar
     7    34    35   ar
     8    35    36   ar
     9    36    37   ar
    10    24    25    1
    11    25    26   ar
    12    26    27   ar
    13    27    28   ar
    14    28    29    1
    15    28    30   ar
    16    30    31   ar
    17     1    21    1
    18     1     2    1
    19     2     3    1
    20     3     4    1
    21     4    14    1
    22    14    15    1
    23    15    16    1
    24    16    17    1
    25    17    18    1
    26    18    19    1
    27     4     5    1
    28     5     6    1
    29     6     7    1
    30     7     8   ar
    31     8     9   ar
    32     9    10   ar
    33    10    11    1
    34    10    12   ar
    35    12    13   ar
    36    37    32   ar
    37    31    25   ar
    38     6     1    1
    39    13     7   ar
    40    19    14    1
    41    22    23    1
@<TRIPOS>MOLECULE
*****
 37 41 0 0 0
SMALL
GASTEIGER

@<TRIPOS>ATOM
      1 C         141.4771  139.5336  160.1558 C.3     1  UNL1        0.0806
      2 C         141.1835  139.5212  158.6848 C.3     1  UNL1        0.0108
      3 C         141.7116  138.4122  157.8240 C.3     1  UNL1        0.0165
      4 C         142.5334  137.3155  158.4341 C.3     1  UNL1        0.0580
      5 C         142.8269  137.3280  159.9050 C.3     1  UNL1        0.0208
      6 C         142.2988  138.4370  160.7658 C.3     1  UNL1        0.0323
      7 C         142.5925  138.4494  162.2368 C.ar    1  UNL1       -0.0220
      8 C         143.8555  139.0798  162.7442 C.ar    1  UNL1       -0.0038
      9 C         144.1490  139.0921  164.2151 C.ar    1  UNL1        0.0064
     10 C         143.1796  138.4742  165.1786 C.ar    1  UNL1        0.0345
     11 BR        143.4733  138.4865  166.6496 Br      1  UNL1       -0.0490
     12 C         141.9167  137.8438  164.6712 C.ar    1  UNL1        0.0064
     13 C         141.6231  137.8314  163.2003 C.ar    1  UNL1       -0.0038
     14 N         143.0615  136.2065  157.5732 N.3     1  UNL1       -0.2697
     15 C         143.3744  134.8705  158.1794 C.3     1  UNL1        0.1046
     16 C         143.9025  133.7615  157.3186 C.3     1  UNL1        0.1595
     17 O         144.1177  133.9883  155.8515 O.3     1  UNL1       -0.3508
     18 C         143.8047  135.3242  155.2453 C.3     1  UNL1        0.1595
     19 C         143.2766  136.4333  156.1062 C.3     1  UNL1        0.1046
     20 O         139.4811  140.7279  161.3132 O.2     1  UNL1       -0.2751
     21 C         140.9490  140.6427  161.0167 C.2     1  UNL1        0.2227
     22 N         141.8888  141.6665  161.5810 N.am    1  UNL1       -0.2986
     23 H         142.8523  141.6106  161.3864 H       1  UNL1        0.1500
     24 C         141.3607  142.7756  162.4419 C.3     1  UNL1        0.1170
     25 C         141.3946  142.6464  163.9359 C.ar    1  UNL1       -0.0002
     26 C         142.7101  142.6022  164.6552 C.ar    1  UNL1       -0.0001
     27 C         142.7440  142.4730  166.1493 C.ar    1  UNL1        0.0294
     28 C         141.4623  142.3881  166.9240 C.ar    1  UNL1        0.1401
     29 F         141.4962  142.2589  168.4180 F       1  UNL1       -0.2042
     30 C         140.1468  142.4323  166.2046 C.ar    1  UNL1        0.0294
     31 C         140.1129  142.5615  164.7106 C.ar    1  UNL1       -0.0001
     32 C         140.7987  144.0139  161.8086 C.ar    1  UNL1        0.0028
     33 C         140.1933  145.0858  162.6655 C.ar    1  UNL1        0.0183
     34 C         139.6313  146.3240  162.0323 C.ar    1  UNL1        0.0986
     35 N         139.6748  146.4903  160.5422 N.ar    1  UNL1       -0.2423
     36 C         140.2803  145.4183  159.6853 C.ar    1  UNL1        0.0986
     37 C         140.8422  144.1801  160.3185 C.ar    1  UNL1        0.0183
@<TRIPOS>BOND
     1    20    21    2
     2    21    22   am
     3    22    24    1
     4    24    32    1
     5    32    33   ar
     6    33    34   ar
     7    34    35   ar
     8    35    36   ar
     9    36    37   ar
    10    24    25    1
    11    25    26   ar
    12    26    27   ar
    13    27    28   ar
    14    28    29    1
    15    28    30   ar
    16    30    31   ar
    17     1    21    1
    18     1     2    1
    19     2     3    1
    20     3     4    1
    21     4    14    1
    22    14    15    1
    23    15    16    1
    24    16    17    1
    25    17    18    1
    26    18    19    1
    27     4     5    1
    28     5     6    1
    29     6     7    1
    30     7     8   ar
    31     8     9   ar
    32     9    10   ar
    33    10    11    1
    34    10    12   ar
    35    12    13   ar
    36    37    32   ar
    37    31    25   ar
    38     6     1    1
    39    13     7   ar
    40    19    14    1
    41    22    23    1
@<TRIPOS>MOLECULE
*****
 37 41 0 0 0
SMALL
GASTEIGER

@<TRIPOS>ATOM
      1 C         139.1071  140.4028  160.0906 C.3     1  UNL1        0.0806
      2 C         139.1161  139.6700  158.7818 C.3     1  UNL1        0.0108
      3 C         138.6383  140.3546  157.5356 C.3     1  UNL1        0.0165
      4 C         138.1513  141.7720  157.5982 C.3     1  UNL1        0.0580
      5 C         138.1423  142.5048  158.9070 C.3     1  UNL1        0.0208
      6 C         138.6202  141.8202  160.1532 C.3     1  UNL1        0.0323
      7 C         138.6112  142.5530  161.4620 C.ar    1  UNL1       -0.0220
      8 C         137.5816  142.2202  162.5008 C.ar    1  UNL1       -0.0038
      9 C         137.5726  142.9530  163.8095 C.ar    1  UNL1        0.0064
     10 C         138.5932  144.0187  164.0794 C.ar    1  UNL1        0.0345
     11 BR        138.5841  144.7516  165.3882 Br      1  UNL1       -0.0490
     12 C         139.6227  144.3515  163.0406 C.ar    1  UNL1        0.0064
     13 C         139.6317  143.6187  161.7319 C.ar    1  UNL1       -0.0038
     14 N         137.6735  142.4566  156.3520 N.3     1  UNL1       -0.2697
     15 C         136.7150  141.7585  155.4333 C.3     1  UNL1        0.1046
     16 C         136.2371  142.4430  154.1871 C.3     1  UNL1        0.1595
     17 O         136.7177  143.8258  153.8597 O.3     1  UNL1       -0.3508
     18 C         137.6762  144.5238  154.7784 C.3     1  UNL1        0.1595
     19 C         138.1540  143.8392  156.0245 C.3     1  UNL1        0.1046
     20 O         139.3412  138.2503  161.5266 O.2     1  UNL1       -0.2751
     21 C         139.5850  139.7182  161.3368 C.2     1  UNL1        0.2227
     22 N         140.3066  140.5014  162.3930 N.am    1  UNL1       -0.2986
     23 H         140.4666  141.4648  162.2684 H       1  UNL1        0.1500
     24 C         140.7845  139.8168  163.6392 C.3     1  UNL1        0.1170
     25 C         139.7921  139.2801  164.6276 C.ar    1  UNL1       -0.0002
     26 C         139.4322  137.8240  164.6137 C.ar    1  UNL1       -0.0001
     27 C         138.4397  137.2872  165.6022 C.ar    1  UNL1        0.0294
     28 C         137.8073  138.2066  166.6046 C.ar    1  UNL1        0.1401
     29 F         136.8149  137.6698  167.5930 F       1  UNL1       -0.2042
     30 C         138.1673  139.6627  166.6185 C.ar    1  UNL1        0.0294
     31 C         139.1596  140.1994  165.6301 C.ar    1  UNL1       -0.0001
     32 C         142.2548  139.6690  163.8969 C.ar    1  UNL1        0.0028
     33 C         142.7328  138.9312  165.1123 C.ar    1  UNL1        0.0183
     34 C         144.2030  138.7834  165.3700 C.ar    1  UNL1        0.0986
     35 N         145.1953  139.3734  164.4123 N.ar    1  UNL1       -0.2423
     36 C         144.7174  140.1113  163.1969 C.ar    1  UNL1        0.0986
     37 C         143.2471  140.2591  162.9393 C.ar    1  UNL1        0.0183
@<TRIPOS>BOND
     1    20    21    2
     2    21    22   am
     3    22    24    1
     4    24    32    1
     5    32    33   ar
     6    33    34   ar
     7    34    35   ar
     8    35    36   ar
     9    36    37   ar
    10    24    25    1
    11    25    26   ar
    12    26    27   ar
    13    27    28   ar
    14    28    29    1
    15    28    30   ar
    16    30    31   ar
    17     1    21    1
    18     1     2    1
    19     2     3    1
    20     3     4    1
    21     4    14    1
    22    14    15    1
    23    15    16    1
    24    16    17    1
    25    17    18    1
    26    18    19    1
    27     4     5    1
    28     5     6    1
    29     6     7    1
    30     7     8   ar
    31     8     9   ar
    32     9    10   ar
    33    10    11    1
    34    10    12   ar
    35    12    13   ar
    36    37    32   ar
    37    31    25   ar
    38     6     1    1
    39    13     7   ar
    40    19    14    1
    41    22    23    1
@<TRIPOS>MOLECULE
*****
 37 41 0 0 0
SMALL
GASTEIGER

@<TRIPOS>ATOM
      1 C         142.1350  139.1226  158.7018 C.3     1  UNL1        0.0806
      2 C         142.0324  138.9864  157.2114 C.3     1  UNL1        0.0108
      3 C         142.3298  137.6702  156.5563 C.3     1  UNL1        0.0165
      4 C         142.7297  136.4901  157.3916 C.3     1  UNL1        0.0580
      5 C         142.8323  136.6263  158.8818 C.3     1  UNL1        0.0208
      6 C         142.5349  137.9425  159.5369 C.3     1  UNL1        0.0323
      7 C         142.6375  138.0787  161.0273 C.ar    1  UNL1       -0.0220
      8 C         141.4562  137.7548  161.8930 C.ar    1  UNL1       -0.0038
      9 C         141.5589  137.8909  163.3833 C.ar    1  UNL1        0.0064
     10 C         142.8428  138.3509  164.0077 C.ar    1  UNL1        0.0345
     11 BR        142.9454  138.4870  165.4981 Br      1  UNL1       -0.0490
     12 C         144.0240  138.6748  163.1420 C.ar    1  UNL1        0.0064
     13 C         143.9214  138.5387  161.6517 C.ar    1  UNL1       -0.0038
     14 N         143.0270  135.1739  156.7364 N.3     1  UNL1       -0.2697
     15 C         143.7259  134.0934  157.5073 C.3     1  UNL1        0.1046
     16 C         144.0233  132.7772  156.8522 C.3     1  UNL1        0.1595
     17 O         143.6217  132.5415  155.4262 O.3     1  UNL1       -0.3508
     18 C         142.9229  133.6220  154.6555 C.3     1  UNL1        0.1595
     19 C         142.6255  134.9382  155.3106 C.3     1  UNL1        0.1046
     20 O         140.4255  140.7965  159.7144 O.2     1  UNL1       -0.2751
     21 C         141.8377  140.4388  159.3569 C.2     1  UNL1        0.2227
     22 N         142.9524  141.3972  159.6545 N.am    1  UNL1       -0.2986
     23 H         143.8793  141.1624  159.4198 H       1  UNL1        0.1500
     24 C         142.6551  142.7134  160.3096 C.3     1  UNL1        0.1170
     25 C         142.9470  142.9083  161.7679 C.ar    1  UNL1       -0.0002
     26 C         143.8088  144.0521  162.2141 C.ar    1  UNL1       -0.0001
     27 C         144.1006  144.2468  163.6725 C.ar    1  UNL1        0.0294
     28 C         143.5307  143.2978  164.6847 C.ar    1  UNL1        0.1401
     29 F         143.8226  143.4927  166.1430 F       1  UNL1       -0.2042
     30 C         142.6689  142.1541  164.2385 C.ar    1  UNL1        0.0294
     31 C         142.3770  141.9592  162.7802 C.ar    1  UNL1       -0.0001
     32 C         142.0659  143.8349  159.5063 C.ar    1  UNL1        0.0028
     33 C         140.8612  144.5696  160.0151 C.ar    1  UNL1        0.0183
     34 C         140.2721  145.6910  159.2118 C.ar    1  UNL1        0.0986
     35 N         140.8875  146.0776  157.8996 N.ar    1  UNL1       -0.2423
     36 C         142.0921  145.3429  157.3908 C.ar    1  UNL1        0.0986
     37 C         142.6813  144.2215  158.1941 C.ar    1  UNL1        0.0183
@<TRIPOS>BOND
     1    20    21    2
     2    21    22   am
     3    22    24    1
     4    24    32    1
     5    32    33   ar
     6    33    34   ar
     7    34    35   ar
     8    35    36   ar
     9    36    37   ar
    10    24    25    1
    11    25    26   ar
    12    26    27   ar
    13    27    28   ar
    14    28    29    1
    15    28    30   ar
    16    30    31   ar
    17     1    21    1
    18     1     2    1
    19     2     3    1
    20     3     4    1
    21     4    14    1
    22    14    15    1
    23    15    16    1
    24    16    17    1
    25    17    18    1
    26    18    19    1
    27     4     5    1
    28     5     6    1
    29     6     7    1
    30     7     8   ar
    31     8     9   ar
    32     9    10   ar
    33    10    11    1
    34    10    12   ar
    35    12    13   ar
    36    37    32   ar
    37    31    25   ar
    38     6     1    1
    39    13     7   ar
    40    19    14    1
    41    22    23    1
@<TRIPOS>MOLECULE
*****
 37 41 0 0 0
SMALL
GASTEIGER

@<TRIPOS>ATOM
      1 C         139.4898  140.7567  160.1769 C.3     1  UNL1        0.0806
      2 C         138.5087  140.0200  159.3139 C.3     1  UNL1        0.0108
      3 C         137.9355  140.6826  158.0963 C.3     1  UNL1        0.0165
      4 C         138.3434  142.0819  157.7418 C.3     1  UNL1        0.0580
      5 C         139.3244  142.8186  158.6049 C.3     1  UNL1        0.0208
      6 C         139.8976  142.1560  159.8224 C.3     1  UNL1        0.0323
      7 C         140.8787  142.8927  160.6855 C.ar    1  UNL1       -0.0220
      8 C         140.3900  143.8936  161.6901 C.ar    1  UNL1       -0.0038
      9 C         141.3711  144.6303  162.5531 C.ar    1  UNL1        0.0064
     10 C         142.8408  144.3660  162.4115 C.ar    1  UNL1        0.0345
     11 BR        143.8219  145.1028  163.2745 Br      1  UNL1       -0.0490
     12 C         143.3295  143.3651  161.4068 C.ar    1  UNL1        0.0064
     13 C         142.3484  142.6285  160.5438 C.ar    1  UNL1       -0.0038
     14 N         137.7702  142.7445  156.5243 N.3     1  UNL1       -0.2697
     15 C         136.6509  142.0893  155.7707 C.3     1  UNL1        0.1046
     16 C         136.0777  142.7519  154.5531 C.3     1  UNL1        0.1595
     17 O         136.6239  144.0697  154.0892 O.3     1  UNL1       -0.3508
     18 C         137.7432  144.7248  154.8428 C.3     1  UNL1        0.1595
     19 C         138.3164  144.0622  156.0603 C.3     1  UNL1        0.1046
     20 O         140.8736  138.8398  161.2542 O.2     1  UNL1       -0.2751
     21 C         140.0629  140.0941  161.3945 C.2     1  UNL1        0.2227
     22 N         139.8255  140.6858  162.7522 N.am    1  UNL1       -0.2986
     23 H         139.2934  141.5090  162.8443 H       1  UNL1        0.1500
     24 C         140.3987  140.0232  163.9698 C.3     1  UNL1        0.1170
     25 C         139.4956  139.3044  164.9277 C.ar    1  UNL1       -0.0002
     26 C         138.9840  140.0094  166.1489 C.ar    1  UNL1       -0.0001
     27 C         138.0809  139.2905  167.1069 C.ar    1  UNL1        0.0294
     28 C         137.6894  137.8667  166.8437 C.ar    1  UNL1        0.1401
     29 F         136.7863  137.1479  167.8016 F       1  UNL1       -0.2042
     30 C         138.2009  137.1617  165.6225 C.ar    1  UNL1        0.0294
     31 C         139.1040  137.8804  164.6645 C.ar    1  UNL1       -0.0001
     32 C         141.8750  140.0794  164.2294 C.ar    1  UNL1        0.0028
     33 C         142.5508  141.4029  164.4331 C.ar    1  UNL1        0.0183
     34 C         144.0271  141.4591  164.6927 C.ar    1  UNL1        0.0986
     35 N         144.8276  140.1917  164.7485 N.ar    1  UNL1       -0.2423
     36 C         144.1518  138.8682  164.5447 C.ar    1  UNL1        0.0986
     37 C         142.6755  138.8121  164.2852 C.ar    1  UNL1        0.0183
@<TRIPOS>BOND
     1    20    21    2
     2    21    22   am
     3    22    24    1
     4    24    32    1
     5    32    33   ar
     6    33    34   ar
     7    34    35   ar
     8    35    36   ar
     9    36    37   ar
    10    24    25    1
    11    25    26   ar
    12    26    27   ar
    13    27    28   ar
    14    28    29    1
    15    28    30   ar
    16    30    31   ar
    17     1    21    1
    18     1     2    1
    19     2     3    1
    20     3     4    1
    21     4    14    1
    22    14    15    1
    23    15    16    1
    24    16    17    1
    25    17    18    1
    26    18    19    1
    27     4     5    1
    28     5     6    1
    29     6     7    1
    30     7     8   ar
    31     8     9   ar
    32     9    10   ar
    33    10    11    1
    34    10    12   ar
    35    12    13   ar
    36    37    32   ar
    37    31    25   ar
    38     6     1    1
    39    13     7   ar
    40    19    14    1
    41    22    23    1
@<TRIPOS>MOLECULE
*****
 37 41 0 0 0
SMALL
GASTEIGER

@<TRIPOS>ATOM
      1 C         142.5910  139.7987  159.5178 C.3     1  UNL1        0.0806
      2 C         143.2737  140.0619  158.2083 C.3     1  UNL1        0.0108
      3 C         143.3489  138.9809  157.1710 C.3     1  UNL1        0.0165
      4 C         142.7413  137.6367  157.4433 C.3     1  UNL1        0.0580
      5 C         142.0586  137.3736  158.7527 C.3     1  UNL1        0.0208
      6 C         141.9835  138.4545  159.7899 C.3     1  UNL1        0.0323
      7 C         141.3007  138.1913  161.0994 C.ar    1  UNL1       -0.0220
      8 C         139.8033  138.2181  161.1833 C.ar    1  UNL1       -0.0038
      9 C         139.1207  137.9549  162.4927 C.ar    1  UNL1        0.0064
     10 C         139.9354  137.6648  163.7183 C.ar    1  UNL1        0.0345
     11 BR        139.2527  137.4016  165.0278 Br      1  UNL1       -0.0490
     12 C         141.4328  137.6380  163.6344 C.ar    1  UNL1        0.0064
     13 C         142.1155  137.9012  162.3250 C.ar    1  UNL1       -0.0038
     14 N         142.8164  136.5558  156.4060 N.3     1  UNL1       -0.2697
     15 C         142.3217  136.8163  155.0141 C.3     1  UNL1        0.1046
     16 C         142.3968  135.7353  153.9769 C.3     1  UNL1        0.1595
     17 O         142.9667  134.3938  154.3315 O.3     1  UNL1       -0.3508
     18 C         143.4615  134.1334  155.7234 C.3     1  UNL1        0.1595
     19 C         143.3863  135.2144  156.7607 C.3     1  UNL1        0.1046
     20 O         143.7552  141.6256  160.9520 O.2     1  UNL1       -0.2751
     21 C         142.5158  140.8796  160.5550 C.2     1  UNL1        0.2227
     22 N         141.2014  141.2147  161.1952 N.am    1  UNL1       -0.2986
     23 H         140.3879  140.7251  160.9346 H       1  UNL1        0.1500
     24 C         141.1262  142.2956  162.2324 C.3     1  UNL1        0.1170
     25 C         141.5973  142.0272  163.6310 C.ar    1  UNL1       -0.0002
     26 C         140.8041  141.1252  164.5294 C.ar    1  UNL1       -0.0001
     27 C         141.2753  140.8567  165.9280 C.ar    1  UNL1        0.0294
     28 C         142.5396  141.4902  166.4281 C.ar    1  UNL1        0.1401
     29 F         143.0107  141.2218  167.8266 F       1  UNL1       -0.2042
     30 C         143.3328  142.3922  165.5296 C.ar    1  UNL1        0.0294
     31 C         142.8617  142.6607  164.1311 C.ar    1  UNL1       -0.0001
     32 C         140.5799  143.6451  161.8711 C.ar    1  UNL1        0.0028
     33 C         139.7955  144.4312  162.8793 C.ar    1  UNL1        0.0183
     34 C         139.2492  145.7806  162.5179 C.ar    1  UNL1        0.0986
     35 N         139.4874  146.3440  161.1483 N.ar    1  UNL1       -0.2423
     36 C         140.2719  145.5579  160.1401 C.ar    1  UNL1        0.0986
     37 C         140.8181  144.2085  160.5014 C.ar    1  UNL1        0.0183
@<TRIPOS>BOND
     1    20    21    2
     2    21    22   am
     3    22    24    1
     4    24    32    1
     5    32    33   ar
     6    33    34   ar
     7    34    35   ar
     8    35    36   ar
     9    36    37   ar
    10    24    25    1
    11    25    26   ar
    12    26    27   ar
    13    27    28   ar
    14    28    29    1
    15    28    30   ar
    16    30    31   ar
    17     1    21    1
    18     1     2    1
    19     2     3    1
    20     3     4    1
    21     4    14    1
    22    14    15    1
    23    15    16    1
    24    16    17    1
    25    17    18    1
    26    18    19    1
    27     4     5    1
    28     5     6    1
    29     6     7    1
    30     7     8   ar
    31     8     9   ar
    32     9    10   ar
    33    10    11    1
    34    10    12   ar
    35    12    13   ar
    36    37    32   ar
    37    31    25   ar
    38     6     1    1
    39    13     7   ar
    40    19    14    1
    41    22    23    1
@<TRIPOS>MOLECULE
*****
 37 41 0 0 0
SMALL
GASTEIGER

@<TRIPOS>ATOM
      1 C         141.6884  139.6922  161.7429 C.3     1  UNL1        0.0806
      2 C         141.3493  138.4763  160.9326 C.3     1  UNL1        0.0108
      3 C         141.9402  138.2973  159.5655 C.3     1  UNL1        0.0165
      4 C         142.8702  139.3342  159.0088 C.3     1  UNL1        0.0580
      5 C         143.2093  140.5501  159.8191 C.3     1  UNL1        0.0208
      6 C         142.6184  140.7291  161.1861 C.3     1  UNL1        0.0323
      7 C         142.9575  141.9451  161.9964 C.ar    1  UNL1       -0.0220
      8 C         144.1399  141.9256  162.9192 C.ar    1  UNL1       -0.0038
      9 C         144.4789  143.1415  163.7295 C.ar    1  UNL1        0.0064
     10 C         143.6356  144.3769  163.6169 C.ar    1  UNL1        0.0345
     11 BR        143.9747  145.5929  164.4272 Br      1  UNL1       -0.0490
     12 C         142.4533  144.3964  162.6941 C.ar    1  UNL1        0.0064
     13 C         142.1142  143.1805  161.8839 C.ar    1  UNL1       -0.0038
     14 N         143.4611  139.1552  157.6417 N.3     1  UNL1       -0.2697
     15 C         143.1128  137.9450  156.8267 C.3     1  UNL1        0.1046
     16 C         143.7037  137.7660  155.4597 C.3     1  UNL1        0.1595
     17 O         144.6428  138.7972  154.9076 O.3     1  UNL1       -0.3508
     18 C         144.9911  140.0074  155.7226 C.3     1  UNL1        0.1595
     19 C         144.4002  140.1864  157.0897 C.3     1  UNL1        0.1046
     20 O         139.7867  140.5820  163.2732 O.2     1  UNL1       -0.2751
     21 C         141.0976  139.8712  163.1099 C.2     1  UNL1        0.2227
     22 N         141.8174  139.3395  164.3136 N.am    1  UNL1       -0.2986
     23 H         142.6778  138.8730  164.2065 H       1  UNL1        0.1500
     24 C         141.2266  139.5185  165.6807 C.3     1  UNL1        0.1170
     25 C         141.9501  140.3359  166.7094 C.ar    1  UNL1       -0.0002
     26 C         142.4630  141.7009  166.3575 C.ar    1  UNL1       -0.0001
     27 C         143.1866  142.5184  167.3863 C.ar    1  UNL1        0.0294
     28 C         143.3973  141.9708  168.7668 C.ar    1  UNL1        0.1401
     29 F         144.1209  142.7883  169.7954 F       1  UNL1       -0.2042
     30 C         142.8845  140.6058  169.1186 C.ar    1  UNL1        0.0294
     31 C         142.1609  139.7884  168.0899 C.ar    1  UNL1       -0.0001
     32 C         139.9120  138.8800  166.0191 C.ar    1  UNL1        0.0028
     33 C         139.4969  137.6108  165.3360 C.ar    1  UNL1        0.0183
     34 C         138.1824  136.9723  165.6744 C.ar    1  UNL1        0.0986
     35 N         137.2831  137.6032  166.6958 N.ar    1  UNL1       -0.2423
     36 C         137.6983  138.8724  167.3789 C.ar    1  UNL1        0.0986
     37 C         139.0127  139.5108  167.0405 C.ar    1  UNL1        0.0183
@<TRIPOS>BOND
     1    20    21    2
     2    21    22   am
     3    22    24    1
     4    24    32    1
     5    32    33   ar
     6    33    34   ar
     7    34    35   ar
     8    35    36   ar
     9    36    37   ar
    10    24    25    1
    11    25    26   ar
    12    26    27   ar
    13    27    28   ar
    14    28    29    1
    15    28    30   ar
    16    30    31   ar
    17     1    21    1
    18     1     2    1
    19     2     3    1
    20     3     4    1
    21     4    14    1
    22    14    15    1
    23    15    16    1
    24    16    17    1
    25    17    18    1
    26    18    19    1
    27     4     5    1
    28     5     6    1
    29     6     7    1
    30     7     8   ar
    31     8     9   ar
    32     9    10   ar
    33    10    11    1
    34    10    12   ar
    35    12    13   ar
    36    37    32   ar
    37    31    25   ar
    38     6     1    1
    39    13     7   ar
    40    19    14    1
    41    22    23    1
@<TRIPOS>MOLECULE
*****
 37 41 0 0 0
SMALL
GASTEIGER

@<TRIPOS>ATOM
      1 C         142.5980  141.3199  159.4868 C.3     1  UNL1        0.0806
      2 C         142.3459  140.8855  158.0733 C.3     1  UNL1        0.0108
      3 C         143.3246  141.2409  156.9936 C.3     1  UNL1        0.0165
      4 C         144.5554  142.0308  157.3273 C.3     1  UNL1        0.0580
      5 C         144.8074  142.4652  158.7407 C.3     1  UNL1        0.0208
      6 C         143.8288  142.1097  159.8204 C.3     1  UNL1        0.0323
      7 C         144.0809  142.5442  161.2339 C.ar    1  UNL1       -0.0220
      8 C         144.9111  141.6890  162.1446 C.ar    1  UNL1       -0.0038
      9 C         145.1631  142.1234  163.5579 C.ar    1  UNL1        0.0064
     10 C         144.5851  143.4130  164.0606 C.ar    1  UNL1        0.0345
     11 BR        144.8372  143.8474  165.4741 Br      1  UNL1       -0.0490
     12 C         143.7549  144.2682  163.1499 C.ar    1  UNL1        0.0064
     13 C         143.5028  143.8338  161.7365 C.ar    1  UNL1       -0.0038
     14 N         145.5340  142.3863  156.2475 N.3     1  UNL1       -0.2697
     15 C         145.0411  142.9119  154.9319 C.3     1  UNL1        0.1046
     16 C         146.0198  143.2674  153.8521 C.3     1  UNL1        0.1595
     17 O         147.4914  143.0972  154.0881 O.3     1  UNL1       -0.3508
     18 C         147.9842  142.5716  155.4036 C.3     1  UNL1        0.1595
     19 C         147.0056  142.2162  156.4834 C.3     1  UNL1        0.1046
     20 O         141.6604  139.6043  161.1978 O.2     1  UNL1       -0.2751
     21 C         141.6193  140.9644  160.5665 C.2     1  UNL1        0.2227
     22 N         140.5997  141.9690  161.0149 N.am    1  UNL1       -0.2986
     23 H         140.5728  142.8616  160.6006 H       1  UNL1        0.1500
     24 C         139.6210  141.6135  162.0947 C.3     1  UNL1        0.1170
     25 C         139.2847  142.6135  163.1610 C.ar    1  UNL1       -0.0002
     26 C         137.8702  143.0831  163.3295 C.ar    1  UNL1       -0.0001
     27 C         137.5339  144.0831  164.3958 C.ar    1  UNL1        0.0294
     28 C         138.6122  144.6134  165.2936 C.ar    1  UNL1        0.1401
     29 F         138.2759  145.6133  166.3599 F       1  UNL1       -0.2042
     30 C         140.0268  144.1437  165.1251 C.ar    1  UNL1        0.0294
     31 C         140.3631  143.1438  164.0588 C.ar    1  UNL1       -0.0001
     32 C         138.9786  140.2581  162.1081 C.ar    1  UNL1        0.0028
     33 C         139.3104  139.2816  163.1972 C.ar    1  UNL1        0.0183
     34 C         138.6681  137.9262  163.2106 C.ar    1  UNL1        0.0986
     35 N         137.6938  137.5473  162.1348 N.ar    1  UNL1       -0.2423
     36 C         137.3620  138.5238  161.0456 C.ar    1  UNL1        0.0986
     37 C         138.0044  139.8792  161.0323 C.ar    1  UNL1        0.0183
@<TRIPOS>BOND
     1    20    21    2
     2    21    22   am
     3    22    24    1
     4    24    32    1
     5    32    33   ar
     6    33    34   ar
     7    34    35   ar
     8    35    36   ar
     9    36    37   ar
    10    24    25    1
    11    25    26   ar
    12    26    27   ar
    13    27    28   ar
    14    28    29    1
    15    28    30   ar
    16    30    31   ar
    17     1    21    1
    18     1     2    1
    19     2     3    1
    20     3     4    1
    21     4    14    1
    22    14    15    1
    23    15    16    1
    24    16    17    1
    25    17    18    1
    26    18    19    1
    27     4     5    1
    28     5     6    1
    29     6     7    1
    30     7     8   ar
    31     8     9   ar
    32     9    10   ar
    33    10    11    1
    34    10    12   ar
    35    12    13   ar
    36    37    32   ar
    37    31    25   ar
    38     6     1    1
    39    13     7   ar
    40    19    14    1
    41    22    23    1
@<TRIPOS>MOLECULE
*****
 37 41 0 0 0
SMALL
GASTEIGER

@<TRIPOS>ATOM
      1 C         141.6612  138.7591  161.3936 C.3     1  UNL1        0.0806
      2 C         141.5381  137.5528  162.2765 C.3     1  UNL1        0.0108
      3 C         140.9156  137.6784  163.6355 C.3     1  UNL1        0.0165
      4 C         140.4163  139.0104  164.1114 C.3     1  UNL1        0.0580
      5 C         140.5394  140.2167  163.2285 C.3     1  UNL1        0.0208
      6 C         141.1619  140.0910  161.8695 C.3     1  UNL1        0.0323
      7 C         141.2850  141.2974  160.9865 C.ar    1  UNL1       -0.0220
      8 C         142.5804  142.0509  160.9225 C.ar    1  UNL1       -0.0038
      9 C         142.7034  143.2572  160.0395 C.ar    1  UNL1        0.0064
     10 C         141.5311  143.7100  159.2206 C.ar    1  UNL1        0.0345
     11 BR        141.6542  144.9164  158.3376 Br      1  UNL1       -0.0490
     12 C         140.2357  142.9565  159.2847 C.ar    1  UNL1        0.0064
     13 C         140.1126  141.7502  160.1676 C.ar    1  UNL1       -0.0038
     14 N         139.7938  139.1361  165.4704 N.3     1  UNL1       -0.2697
     15 C         138.4411  138.5434  165.7334 C.3     1  UNL1        0.1046
     16 C         137.8186  138.6691  167.0924 C.3     1  UNL1        0.1595
     17 O         138.5488  139.3873  168.1883 O.3     1  UNL1       -0.3508
     18 C         139.9014  139.9799  167.9252 C.3     1  UNL1        0.1595
     19 C         140.5239  139.8543  166.5663 C.3     1  UNL1        0.1046
     20 O         143.7662  138.7932  159.8711 O.2     1  UNL1       -0.2751
     21 C         142.2837  138.6335  160.0346 C.2     1  UNL1        0.2227
     22 N         141.4237  138.3482  158.8392 N.am    1  UNL1       -0.2986
     23 H         140.4507  138.2434  158.9466 H       1  UNL1        0.1500
     24 C         142.0462  138.2225  157.4803 C.3     1  UNL1        0.1170
     25 C         142.6844  139.4164  156.8344 C.ar    1  UNL1       -0.0002
     26 C         143.9678  139.2612  156.0736 C.ar    1  UNL1       -0.0001
     27 C         144.6060  140.4552  155.4277 C.ar    1  UNL1        0.0294
     28 C         143.9607  141.8044  155.5425 C.ar    1  UNL1        0.1401
     29 F         144.5989  142.9983  154.8966 F       1  UNL1       -0.2042
     30 C         142.6773  141.9597  156.3033 C.ar    1  UNL1        0.0294
     31 C         142.0391  140.7658  156.9492 C.ar    1  UNL1       -0.0001
     32 C         142.0305  136.9029  156.7672 C.ar    1  UNL1        0.0028
     33 C         141.0446  136.6584  155.6636 C.ar    1  UNL1        0.0183
     34 C         141.0289  135.3388  154.9507 C.ar    1  UNL1        0.0986
     35 N         141.9992  134.2637  155.3413 N.ar    1  UNL1       -0.2423
     36 C         142.9852  134.5082  156.4449 C.ar    1  UNL1        0.0986
     37 C         143.0008  135.8278  157.1579 C.ar    1  UNL1        0.0183
@<TRIPOS>BOND
     1    20    21    2
     2    21    22   am
     3    22    24    1
     4    24    32    1
     5    32    33   ar
     6    33    34   ar
     7    34    35   ar
     8    35    36   ar
     9    36    37   ar
    10    24    25    1
    11    25    26   ar
    12    26    27   ar
    13    27    28   ar
    14    28    29    1
    15    28    30   ar
    16    30    31   ar
    17     1    21    1
    18     1     2    1
    19     2     3    1
    20     3     4    1
    21     4    14    1
    22    14    15    1
    23    15    16    1
    24    16    17    1
    25    17    18    1
    26    18    19    1
    27     4     5    1
    28     5     6    1
    29     6     7    1
    30     7     8   ar
    31     8     9   ar
    32     9    10   ar
    33    10    11    1
    34    10    12   ar
    35    12    13   ar
    36    37    32   ar
    37    31    25   ar
    38     6     1    1
    39    13     7   ar
    40    19    14    1
    41    22    23    1
