@<TRIPOS>MOLECULE
*****
 29 32 0 0 0
SMALL
GASTEIGER

@<TRIPOS>ATOM
      1 C         139.1785  138.4119  163.2460 C.3     1  UNL1        0.0559
      2 C         139.4092  139.4340  164.3193 C.3     1  UNL1        0.2097
      3 N         139.6102  139.1503  165.7784 N.pl3   1  UNL1       -0.2170
      4 C         139.8047  140.4603  166.4829 C.2     1  UNL1        0.3340
      5 N         139.7238  141.5536  165.4591 N.2     1  UNL1       -0.0601
      6 C         139.4794  140.9193  164.1220 C.3     1  UNL1        0.2500
      7 H         139.6139  138.2605  166.1998 H       1  UNL1        0.2923
      8 C         139.2392  140.5808  162.6806 C.ar    1  UNL1        0.0297
      9 C         140.4003  140.4149  161.7456 C.ar    1  UNL1        0.0025
     10 C         140.1602  140.0763  160.3041 C.ar    1  UNL1        0.0295
     11 C         138.7589  139.9037  159.7977 C.ar    1  UNL1        0.1401
     12 F         138.5187  139.5651  158.3563 F       1  UNL1       -0.2042
     13 C         137.5976  140.0696  160.7327 C.ar    1  UNL1        0.0295
     14 C         137.8378  140.4081  162.1741 C.ar    1  UNL1        0.0025
     15 C         139.4994  142.3339  163.6233 C.ar    1  UNL1        0.0297
     16 C         138.2123  143.0808  163.4346 C.ar    1  UNL1        0.0025
     17 C         138.2323  144.4954  162.9359 C.ar    1  UNL1        0.0295
     18 C         139.5392  145.1629  162.6258 C.ar    1  UNL1        0.1401
     19 F         139.5591  146.5775  162.1271 F       1  UNL1       -0.2042
     20 C         140.8262  144.4160  162.8144 C.ar    1  UNL1        0.0295
     21 C         140.8063  143.0014  163.3132 C.ar    1  UNL1        0.0025
     22 C         140.0388  140.6445  167.9530 C.ar    1  UNL1        0.1633
     23 C         141.0515  141.6420  168.4320 C.ar    1  UNL1        0.0370
     24 C         141.2856  141.8262  169.9021 C.ar    1  UNL1        0.0717
     25 C         140.5071  141.0129  170.8932 C.ar    1  UNL1        0.0310
     26 C         139.4944  140.0154  170.4143 C.ar    1  UNL1        0.0998
     27 N         139.2603  139.8312  168.9442 N.ar    1  UNL1       -0.2364
     28 C         142.2983  142.8238  170.3811 C.1     1  UNL1        0.1005
     29 N         143.3110  143.8213  170.8600 N.1     1  UNL1       -0.1908
@<TRIPOS>BOND
     1     2     1    1
     2     2     3    1
     3     3     4    1
     4     4    22    1
     5    22    23   ar
     6    23    24   ar
     7    24    28    1
     8    28    29    3
     9    24    25   ar
    10    25    26   ar
    11    26    27   ar
    12     4     5    2
    13     5     6    1
    14     6     8    1
    15     8     9   ar
    16     9    10   ar
    17    10    11   ar
    18    11    12    1
    19    11    13   ar
    20    13    14   ar
    21     6    15    1
    22    15    16   ar
    23    16    17   ar
    24    17    18   ar
    25    18    19    1
    26    18    20   ar
    27    20    21   ar
    28     6     2    1
    29    14     8   ar
    30    21    15   ar
    31    27    22   ar
    32     3     7    1
@<TRIPOS>MOLECULE
*****
 29 32 0 0 0
SMALL
GASTEIGER

@<TRIPOS>ATOM
      1 C         144.4506  139.7462  162.8826 C.3     1  UNL1        0.0559
      2 C         143.6457  140.3286  164.0064 C.3     1  UNL1        0.2097
      3 N         143.5700  139.7944  165.4059 N.pl3   1  UNL1       -0.2170
      4 C         142.6527  140.6832  166.1925 C.2     1  UNL1        0.3340
      5 N         142.1614  141.7668  165.2790 N.2     1  UNL1       -0.0601
      6 C         142.7751  141.5477  163.9279 C.3     1  UNL1        0.2500
      7 H         144.0399  138.9998  165.7482 H       1  UNL1        0.2923
      8 C         143.2265  141.5850  162.4979 C.ar    1  UNL1        0.0297
      9 C         142.5232  140.7523  161.4675 C.ar    1  UNL1        0.0025
     10 C         142.9746  140.7896  160.0374 C.ar    1  UNL1        0.0295
     11 C         144.1293  141.6596  159.6380 C.ar    1  UNL1        0.1401
     12 F         144.5807  141.6970  158.2080 F       1  UNL1       -0.2042
     13 C         144.8327  142.4924  160.6685 C.ar    1  UNL1        0.0295
     14 C         144.3813  142.4551  162.0985 C.ar    1  UNL1        0.0025
     15 C         141.9989  142.7745  163.5505 C.ar    1  UNL1        0.0297
     16 C         140.7127  142.6437  162.7899 C.ar    1  UNL1        0.0025
     17 C         139.9365  143.8705  162.4125 C.ar    1  UNL1        0.0295
     18 C         140.4466  145.2281  162.7956 C.ar    1  UNL1        0.1401
     19 F         139.6703  146.4549  162.4181 F       1  UNL1       -0.2042
     20 C         141.7328  145.3589  163.5561 C.ar    1  UNL1        0.0295
     21 C         142.5090  144.1320  163.9336 C.ar    1  UNL1        0.0025
     22 C         142.2903  140.5174  167.6386 C.ar    1  UNL1        0.1633
     23 C         141.4043  141.5245  168.3099 C.ar    1  UNL1        0.0370
     24 C         141.0419  141.3587  169.7560 C.ar    1  UNL1        0.0717
     25 C         141.5656  140.1859  170.5308 C.ar    1  UNL1        0.0310
     26 C         142.4516  139.1789  169.8594 C.ar    1  UNL1        0.0998
     27 N         142.8140  139.3446  168.4134 N.ar    1  UNL1       -0.2364
     28 C         140.1558  142.3658  170.4274 C.1     1  UNL1        0.1005
     29 N         139.2698  143.3728  171.0988 N.1     1  UNL1       -0.1908
@<TRIPOS>BOND
     1     2     1    1
     2     2     3    1
     3     3     4    1
     4     4    22    1
     5    22    23   ar
     6    23    24   ar
     7    24    28    1
     8    28    29    3
     9    24    25   ar
    10    25    26   ar
    11    26    27   ar
    12     4     5    2
    13     5     6    1
    14     6     8    1
    15     8     9   ar
    16     9    10   ar
    17    10    11   ar
    18    11    12    1
    19    11    13   ar
    20    13    14   ar
    21     6    15    1
    22    15    16   ar
    23    16    17   ar
    24    17    18   ar
    25    18    19    1
    26    18    20   ar
    27    20    21   ar
    28     6     2    1
    29    14     8   ar
    30    21    15   ar
    31    27    22   ar
    32     3     7    1
@<TRIPOS>MOLECULE
*****
 29 32 0 0 0
SMALL
GASTEIGER

@<TRIPOS>ATOM
      1 C         142.4366  139.5351  167.7835 C.3     1  UNL1        0.0559
      2 C         142.0891  139.6782  166.3314 C.3     1  UNL1        0.2097
      3 N         142.6645  138.8738  165.2036 N.pl3   1  UNL1       -0.2170
      4 C         142.0362  139.3494  163.9273 C.2     1  UNL1        0.3340
      5 N         141.0725  140.4477  164.2661 N.2     1  UNL1       -0.0601
      6 C         141.1052  140.6510  165.7519 C.3     1  UNL1        0.2500
      7 H         143.3365  138.1592  165.2866 H       1  UNL1        0.2923
      8 C         140.9243  141.0762  167.1790 C.ar    1  UNL1        0.0297
      9 C         139.8139  140.4916  168.0007 C.ar    1  UNL1        0.0025
     10 C         139.6330  140.9167  169.4278 C.ar    1  UNL1        0.0295
     11 C         140.5624  141.9265  170.0331 C.ar    1  UNL1        0.1401
     12 F         140.3815  142.3517  171.4602 F       1  UNL1       -0.2042
     13 C         141.6729  142.5112  169.2114 C.ar    1  UNL1        0.0295
     14 C         141.8538  142.0860  167.7843 C.ar    1  UNL1        0.0025
     15 C         140.0834  141.7126  165.4709 C.ar    1  UNL1        0.0297
     16 C         140.3964  143.1505  165.7618 C.ar    1  UNL1        0.0025
     17 C         139.3746  144.2121  165.4808 C.ar    1  UNL1        0.0295
     18 C         138.0400  143.8359  164.9088 C.ar    1  UNL1        0.1401
     19 F         137.0182  144.8976  164.6278 F       1  UNL1       -0.2042
     20 C         137.7271  142.3981  164.6179 C.ar    1  UNL1        0.0295
     21 C         138.7488  141.3364  164.8990 C.ar    1  UNL1        0.0025
     22 C         142.3216  138.8196  162.5532 C.ar    1  UNL1        0.1633
     23 C         141.2775  138.9158  161.4805 C.ar    1  UNL1        0.0370
     24 C         141.5629  138.3860  160.1065 C.ar    1  UNL1        0.0717
     25 C         142.8923  137.7599  159.8053 C.ar    1  UNL1        0.0310
     26 C         143.9363  137.6637  160.8780 C.ar    1  UNL1        0.0998
     27 N         143.6509  138.1935  162.2519 N.ar    1  UNL1       -0.2364
     28 C         140.5189  138.4822  159.0337 C.1     1  UNL1        0.1005
     29 N         139.4749  138.5784  157.9610 N.1     1  UNL1       -0.1908
@<TRIPOS>BOND
     1     2     1    1
     2     2     3    1
     3     3     4    1
     4     4    22    1
     5    22    23   ar
     6    23    24   ar
     7    24    28    1
     8    28    29    3
     9    24    25   ar
    10    25    26   ar
    11    26    27   ar
    12     4     5    2
    13     5     6    1
    14     6     8    1
    15     8     9   ar
    16     9    10   ar
    17    10    11   ar
    18    11    12    1
    19    11    13   ar
    20    13    14   ar
    21     6    15    1
    22    15    16   ar
    23    16    17   ar
    24    17    18   ar
    25    18    19    1
    26    18    20   ar
    27    20    21   ar
    28     6     2    1
    29    14     8   ar
    30    21    15   ar
    31    27    22   ar
    32     3     7    1
@<TRIPOS>MOLECULE
*****
 29 32 0 0 0
SMALL
GASTEIGER

@<TRIPOS>ATOM
      1 C         142.8981  142.4338  166.3777 C.3     1  UNL1        0.0559
      2 C         141.9407  142.1192  165.2667 C.3     1  UNL1        0.2097
      3 N         141.8464  142.8386  163.9539 N.pl3   1  UNL1       -0.2170
      4 C         140.7568  142.1940  163.1492 C.2     1  UNL1        0.3340
      5 N         140.1778  141.0762  163.9647 N.2     1  UNL1       -0.0601
      6 C         140.9094  141.0299  165.2734 C.3     1  UNL1        0.2500
      7 H         142.4020  143.6002  163.6701 H       1  UNL1        0.2923
      8 C         141.4490  140.7435  166.6433 C.ar    1  UNL1        0.0297
      9 C         141.0449  141.6040  167.8036 C.ar    1  UNL1        0.0025
     10 C         141.5845  141.3176  169.1736 C.ar    1  UNL1        0.0295
     11 C         142.5281  140.1707  169.3833 C.ar    1  UNL1        0.1401
     12 F         143.0678  139.8842  170.7532 F       1  UNL1       -0.2042
     13 C         142.9323  139.3100  168.2230 C.ar    1  UNL1        0.0295
     14 C         142.3926  139.5965  166.8530 C.ar    1  UNL1        0.0025
     15 C         139.9909  139.8808  165.5665 C.ar    1  UNL1        0.0297
     16 C         138.9536  140.0054  166.6429 C.ar    1  UNL1        0.0025
     17 C         138.0352  138.8562  166.9360 C.ar    1  UNL1        0.0295
     18 C         138.1541  137.5825  166.1528 C.ar    1  UNL1        0.1401
     19 F         137.2356  136.4333  166.4460 F       1  UNL1       -0.2042
     20 C         139.1913  137.4579  165.0765 C.ar    1  UNL1        0.0295
     21 C         140.1098  138.6070  164.7833 C.ar    1  UNL1        0.0025
     22 C         140.3227  142.5966  161.7710 C.ar    1  UNL1        0.1633
     23 C         141.1317  143.5891  160.9898 C.ar    1  UNL1        0.0370
     24 C         140.6975  143.9917  159.6116 C.ar    1  UNL1        0.0717
     25 C         139.4543  143.4016  159.0146 C.ar    1  UNL1        0.0310
     26 C         138.6453  142.4091  159.7958 C.ar    1  UNL1        0.0998
     27 N         139.0795  142.0065  161.1740 N.ar    1  UNL1       -0.2364
     28 C         141.5065  144.9843  158.8303 C.1     1  UNL1        0.1005
     29 N         142.3154  145.9769  158.0491 N.1     1  UNL1       -0.1908
@<TRIPOS>BOND
     1     2     1    1
     2     2     3    1
     3     3     4    1
     4     4    22    1
     5    22    23   ar
     6    23    24   ar
     7    24    28    1
     8    28    29    3
     9    24    25   ar
    10    25    26   ar
    11    26    27   ar
    12     4     5    2
    13     5     6    1
    14     6     8    1
    15     8     9   ar
    16     9    10   ar
    17    10    11   ar
    18    11    12    1
    19    11    13   ar
    20    13    14   ar
    21     6    15    1
    22    15    16   ar
    23    16    17   ar
    24    17    18   ar
    25    18    19    1
    26    18    20   ar
    27    20    21   ar
    28     6     2    1
    29    14     8   ar
    30    21    15   ar
    31    27    22   ar
    32     3     7    1
@<TRIPOS>MOLECULE
*****
 29 32 0 0 0
SMALL
GASTEIGER

@<TRIPOS>ATOM
      1 C         144.7617  140.9292  162.7141 C.3     1  UNL1        0.0559
      2 C         143.7370  140.7798  163.7993 C.3     1  UNL1        0.2097
      3 N         143.9287  141.1247  165.2465 N.pl3   1  UNL1       -0.2170
      4 C         142.6508  140.8174  165.9694 C.2     1  UNL1        0.3340
      5 N         141.6694  140.2826  164.9691 N.2     1  UNL1       -0.0601
      6 C         142.3407  140.2593  163.6279 C.3     1  UNL1        0.2500
      7 H         144.7491  141.4888  165.6508 H       1  UNL1        0.2923
      8 C         142.7374  140.1213  162.1879 C.ar    1  UNL1        0.0297
      9 C         143.3076  138.8272  161.6879 C.ar    1  UNL1        0.0025
     10 C         143.7044  138.6891  160.2478 C.ar    1  UNL1        0.0295
     11 C         143.5309  139.8451  159.3080 C.ar    1  UNL1        0.1401
     12 F         143.9276  139.7070  157.8680 F       1  UNL1       -0.2042
     13 C         142.9606  141.1393  159.8080 C.ar    1  UNL1        0.0295
     14 C         142.5639  141.2773  161.2480 C.ar    1  UNL1        0.0025
     15 C         141.0273  139.7100  163.1554 C.ar    1  UNL1        0.0297
     16 C         140.7386  138.2435  163.2819 C.ar    1  UNL1        0.0025
     17 C         139.4252  137.6942  162.8095 C.ar    1  UNL1        0.0295
     18 C         138.4005  138.6113  162.2104 C.ar    1  UNL1        0.1401
     19 F         137.0871  138.0619  161.7379 F       1  UNL1       -0.2042
     20 C         138.6892  140.0777  162.0838 C.ar    1  UNL1        0.0295
     21 C         140.0026  140.6272  162.5563 C.ar    1  UNL1        0.0025
     22 C         142.3987  141.0109  167.4354 C.ar    1  UNL1        0.1633
     23 C         141.6699  142.2304  167.9165 C.ar    1  UNL1        0.0370
     24 C         141.4178  142.4239  169.3824 C.ar    1  UNL1        0.0717
     25 C         141.8946  141.3979  170.3673 C.ar    1  UNL1        0.0310
     26 C         142.6234  140.1784  169.8862 C.ar    1  UNL1        0.0998
     27 N         142.8755  139.9849  168.4203 N.ar    1  UNL1       -0.2364
     28 C         140.6889  143.6435  169.8636 C.1     1  UNL1        0.1005
     29 N         139.9601  144.8630  170.3447 N.1     1  UNL1       -0.1908
@<TRIPOS>BOND
     1     2     1    1
     2     2     3    1
     3     3     4    1
     4     4    22    1
     5    22    23   ar
     6    23    24   ar
     7    24    28    1
     8    28    29    3
     9    24    25   ar
    10    25    26   ar
    11    26    27   ar
    12     4     5    2
    13     5     6    1
    14     6     8    1
    15     8     9   ar
    16     9    10   ar
    17    10    11   ar
    18    11    12    1
    19    11    13   ar
    20    13    14   ar
    21     6    15    1
    22    15    16   ar
    23    16    17   ar
    24    17    18   ar
    25    18    19    1
    26    18    20   ar
    27    20    21   ar
    28     6     2    1
    29    14     8   ar
    30    21    15   ar
    31    27    22   ar
    32     3     7    1
@<TRIPOS>MOLECULE
*****
 29 32 0 0 0
SMALL
GASTEIGER

@<TRIPOS>ATOM
      1 C         141.4113  137.5768  163.3288 C.3     1  UNL1        0.0559
      2 C         141.1779  138.6023  164.3984 C.3     1  UNL1        0.2097
      3 N         141.6409  138.5122  165.8223 N.pl3   1  UNL1       -0.2170
      4 C         141.1897  139.7521  166.5358 C.2     1  UNL1        0.3340
      5 N         140.4478  140.6085  165.5528 N.2     1  UNL1       -0.0601
      6 C         140.4405  139.8979  164.2319 C.3     1  UNL1        0.2500
      7 H         142.1514  137.7697  166.2189 H       1  UNL1        0.2923
      8 C         140.2717  139.4380  162.8141 C.ar    1  UNL1        0.0297
      9 C         141.2572  139.8619  161.7658 C.ar    1  UNL1        0.0025
     10 C         141.0884  139.4020  160.3480 C.ar    1  UNL1        0.0295
     11 C         139.9341  138.5183  159.9786 C.ar    1  UNL1        0.1401
     12 F         139.7653  138.0584  158.5609 F       1  UNL1       -0.2042
     13 C         138.9485  138.0943  161.0270 C.ar    1  UNL1        0.0295
     14 C         139.1173  138.5542  162.4447 C.ar    1  UNL1        0.0025
     15 C         139.6678  141.0973  163.7689 C.ar    1  UNL1        0.0297
     16 C         138.1696  141.0492  163.7148 C.ar    1  UNL1        0.0025
     17 C         137.3969  142.2487  163.2519 C.ar    1  UNL1        0.0295
     18 C         138.1225  143.4962  162.8430 C.ar    1  UNL1        0.1401
     19 F         137.3497  144.6956  162.3801 F       1  UNL1       -0.2042
     20 C         139.6206  143.5443  162.8971 C.ar    1  UNL1        0.0295
     21 C         140.3934  142.3449  163.3601 C.ar    1  UNL1        0.0025
     22 C         141.4370  140.0783  167.9789 C.ar    1  UNL1        0.1633
     23 C         140.6172  141.1335  168.6604 C.ar    1  UNL1        0.0370
     24 C         140.8645  141.4597  170.1035 C.ar    1  UNL1        0.0717
     25 C         141.9316  140.7307  170.8649 C.ar    1  UNL1        0.0310
     26 C         142.7514  139.6755  170.1834 C.ar    1  UNL1        0.0998
     27 N         142.5041  139.3494  168.7404 N.ar    1  UNL1       -0.2364
     28 C         140.0447  142.5148  170.7851 C.1     1  UNL1        0.1005
     29 N         139.2250  143.5700  171.4667 N.1     1  UNL1       -0.1908
@<TRIPOS>BOND
     1     2     1    1
     2     2     3    1
     3     3     4    1
     4     4    22    1
     5    22    23   ar
     6    23    24   ar
     7    24    28    1
     8    28    29    3
     9    24    25   ar
    10    25    26   ar
    11    26    27   ar
    12     4     5    2
    13     5     6    1
    14     6     8    1
    15     8     9   ar
    16     9    10   ar
    17    10    11   ar
    18    11    12    1
    19    11    13   ar
    20    13    14   ar
    21     6    15    1
    22    15    16   ar
    23    16    17   ar
    24    17    18   ar
    25    18    19    1
    26    18    20   ar
    27    20    21   ar
    28     6     2    1
    29    14     8   ar
    30    21    15   ar
    31    27    22   ar
    32     3     7    1
@<TRIPOS>MOLECULE
*****
 29 32 0 0 0
SMALL
GASTEIGER

@<TRIPOS>ATOM
      1 C         140.8578  137.3042  163.2347 C.3     1  UNL1        0.0559
      2 C         141.0460  138.4336  164.2037 C.3     1  UNL1        0.2097
      3 N         140.4836  138.5070  165.5923 N.pl3   1  UNL1       -0.2170
      4 C         140.9197  139.8067  166.2010 C.2     1  UNL1        0.3340
      5 N         141.7517  140.5366  165.1886 N.2     1  UNL1       -0.0601
      6 C         141.8298  139.6880  163.9542 C.3     1  UNL1        0.2500
      7 H         139.9261  137.8223  166.0277 H       1  UNL1        0.2923
      8 C         142.0828  139.0749  162.6089 C.ar    1  UNL1        0.0297
      9 C         141.0833  139.2512  161.5044 C.ar    1  UNL1        0.0025
     10 C         141.3362  138.6381  160.1589 C.ar    1  UNL1        0.0295
     11 C         142.5886  137.8486  159.9181 C.ar    1  UNL1        0.1401
     12 F         142.8415  137.2354  158.5727 F       1  UNL1       -0.2042
     13 C         143.5882  137.6722  161.0226 C.ar    1  UNL1        0.0295
     14 C         143.3352  138.2854  162.3679 C.ar    1  UNL1        0.0025
     15 C         142.6665  140.8142  163.4235 C.ar    1  UNL1        0.0297
     16 C         142.0468  141.8584  162.5426 C.ar    1  UNL1        0.0025
     17 C         142.8835  142.9846  162.0119 C.ar    1  UNL1        0.0295
     18 C         144.3397  143.0666  162.3619 C.ar    1  UNL1        0.1401
     19 F         145.1764  144.1929  161.8311 F       1  UNL1       -0.2042
     20 C         144.9593  142.0225  163.2427 C.ar    1  UNL1        0.0295
     21 C         144.1227  140.8963  163.7735 C.ar    1  UNL1        0.0025
     22 C         140.5830  140.2914  167.5801 C.ar    1  UNL1        0.1633
     23 C         141.4688  141.2927  168.2603 C.ar    1  UNL1        0.0370
     24 C         141.1320  141.7773  169.6393 C.ar    1  UNL1        0.0717
     25 C         139.9094  141.2606  170.3381 C.ar    1  UNL1        0.0310
     26 C         139.0236  140.2593  169.6579 C.ar    1  UNL1        0.0998
     27 N         139.3604  139.7747  168.2789 N.ar    1  UNL1       -0.2364
     28 C         142.0178  142.7786  170.3196 C.1     1  UNL1        0.1005
     29 N         142.9036  143.7799  170.9998 N.1     1  UNL1       -0.1908
@<TRIPOS>BOND
     1     2     1    1
     2     2     3    1
     3     3     4    1
     4     4    22    1
     5    22    23   ar
     6    23    24   ar
     7    24    28    1
     8    28    29    3
     9    24    25   ar
    10    25    26   ar
    11    26    27   ar
    12     4     5    2
    13     5     6    1
    14     6     8    1
    15     8     9   ar
    16     9    10   ar
    17    10    11   ar
    18    11    12    1
    19    11    13   ar
    20    13    14   ar
    21     6    15    1
    22    15    16   ar
    23    16    17   ar
    24    17    18   ar
    25    18    19    1
    26    18    20   ar
    27    20    21   ar
    28     6     2    1
    29    14     8   ar
    30    21    15   ar
    31    27    22   ar
    32     3     7    1
@<TRIPOS>MOLECULE
*****
 29 32 0 0 0
SMALL
GASTEIGER

@<TRIPOS>ATOM
      1 C         141.0554  137.5991  164.7613 C.3     1  UNL1        0.0559
      2 C         140.8815  138.1764  163.3878 C.3     1  UNL1        0.2097
      3 N         141.3575  137.5603  162.1057 N.pl3   1  UNL1       -0.2170
      4 C         140.9712  138.4743  160.9807 C.2     1  UNL1        0.3340
      5 N         140.2564  139.6552  161.5676 N.2     1  UNL1       -0.0601
      6 C         140.2010  139.4711  163.0552 C.3     1  UNL1        0.2500
      7 H         141.8390  136.7060  162.0179 H       1  UNL1        0.2923
      8 C         139.9942  139.5617  164.5381 C.ar    1  UNL1        0.0297
      9 C         138.7761  138.9500  165.1642 C.ar    1  UNL1        0.0025
     10 C         138.5693  139.0405  166.6472 C.ar    1  UNL1        0.0295
     11 C         139.5806  139.7427  167.5039 C.ar    1  UNL1        0.1401
     12 F         139.3739  139.8332  168.9868 F       1  UNL1       -0.2042
     13 C         140.7988  140.3544  166.8778 C.ar    1  UNL1        0.0295
     14 C         141.0056  140.2639  165.3949 C.ar    1  UNL1        0.0025
     15 C         139.4772  140.7848  163.0327 C.ar    1  UNL1        0.0297
     16 C         137.9839  140.8208  163.1695 C.ar    1  UNL1        0.0025
     17 C         137.2602  142.1345  163.1470 C.ar    1  UNL1        0.0295
     18 C         138.0298  143.4121  162.9876 C.ar    1  UNL1        0.1401
     19 F         137.3060  144.7258  162.9651 F       1  UNL1       -0.2042
     20 C         139.5230  143.3761  162.8508 C.ar    1  UNL1        0.0295
     21 C         140.2468  142.0624  162.8733 C.ar    1  UNL1        0.0025
     22 C         141.2507  138.2471  159.5245 C.ar    1  UNL1        0.1633
     23 C         140.1179  137.9977  158.5734 C.ar    1  UNL1        0.0370
     24 C         140.3974  137.7706  157.1174 C.ar    1  UNL1        0.0717
     25 C         141.8096  137.7928  156.6123 C.ar    1  UNL1        0.0310
     26 C         142.9424  138.0421  157.5634 C.ar    1  UNL1        0.0998
     27 N         142.6629  138.2693  159.0195 N.ar    1  UNL1       -0.2364
     28 C         139.2646  137.5212  156.1662 C.1     1  UNL1        0.1005
     29 N         138.1318  137.2719  155.2150 N.1     1  UNL1       -0.1908
@<TRIPOS>BOND
     1     2     1    1
     2     2     3    1
     3     3     4    1
     4     4    22    1
     5    22    23   ar
     6    23    24   ar
     7    24    28    1
     8    28    29    3
     9    24    25   ar
    10    25    26   ar
    11    26    27   ar
    12     4     5    2
    13     5     6    1
    14     6     8    1
    15     8     9   ar
    16     9    10   ar
    17    10    11   ar
    18    11    12    1
    19    11    13   ar
    20    13    14   ar
    21     6    15    1
    22    15    16   ar
    23    16    17   ar
    24    17    18   ar
    25    18    19    1
    26    18    20   ar
    27    20    21   ar
    28     6     2    1
    29    14     8   ar
    30    21    15   ar
    31    27    22   ar
    32     3     7    1
@<TRIPOS>MOLECULE
*****
 29 32 0 0 0
SMALL
GASTEIGER

@<TRIPOS>ATOM
      1 C         142.9397  142.4285  166.5069 C.3     1  UNL1        0.0559
      2 C         141.9900  142.1370  165.3830 C.3     1  UNL1        0.2097
      3 N         141.9078  142.8806  164.0829 N.pl3   1  UNL1       -0.2170
      4 C         140.8227  142.2539  163.2583 C.2     1  UNL1        0.3340
      5 N         140.2343  141.1230  164.0488 N.2     1  UNL1       -0.0601
      6 C         140.9557  141.0508  165.3620 C.3     1  UNL1        0.2500
      7 H         142.4677  143.6456  163.8174 H       1  UNL1        0.2923
      8 C         141.4840  140.7378  166.7305 C.ar    1  UNL1        0.0297
      9 C         142.3993  139.5665  166.9313 C.ar    1  UNL1        0.0025
     10 C         142.9276  139.2535  168.2999 C.ar    1  UNL1        0.0295
     11 C         142.5407  140.1117  169.4676 C.ar    1  UNL1        0.1401
     12 F         143.0690  139.7987  170.8361 F       1  UNL1       -0.2042
     13 C         141.6253  141.2831  169.2668 C.ar    1  UNL1        0.0295
     14 C         141.0970  141.5961  167.8983 C.ar    1  UNL1        0.0025
     15 C         140.0319  139.8991  165.6270 C.ar    1  UNL1        0.0297
     16 C         138.9975  140.0009  166.7086 C.ar    1  UNL1        0.0025
     17 C         138.0737  138.8492  166.9737 C.ar    1  UNL1        0.0295
     18 C         138.1843  137.5958  166.1572 C.ar    1  UNL1        0.1401
     19 F         137.2604  136.4441  166.4223 F       1  UNL1       -0.2042
     20 C         139.2186  137.4940  165.0757 C.ar    1  UNL1        0.0295
     21 C         140.1424  138.6457  164.8105 C.ar    1  UNL1        0.0025
     22 C         140.4002  142.6828  161.8844 C.ar    1  UNL1        0.1633
     23 C         139.5727  141.7656  161.0336 C.ar    1  UNL1        0.0370
     24 C         139.1503  142.1945  159.6598 C.ar    1  UNL1        0.0717
     25 C         139.5554  143.5407  159.1367 C.ar    1  UNL1        0.0310
     26 C         140.3829  144.4580  159.9874 C.ar    1  UNL1        0.0998
     27 N         140.8053  144.0290  161.3613 N.ar    1  UNL1       -0.2364
     28 C         138.3227  141.2772  158.8090 C.1     1  UNL1        0.1005
     29 N         137.4952  140.3600  157.9582 N.1     1  UNL1       -0.1908
@<TRIPOS>BOND
     1     2     1    1
     2     2     3    1
     3     3     4    1
     4     4    22    1
     5    22    23   ar
     6    23    24   ar
     7    24    28    1
     8    28    29    3
     9    24    25   ar
    10    25    26   ar
    11    26    27   ar
    12     4     5    2
    13     5     6    1
    14     6     8    1
    15     8     9   ar
    16     9    10   ar
    17    10    11   ar
    18    11    12    1
    19    11    13   ar
    20    13    14   ar
    21     6    15    1
    22    15    16   ar
    23    16    17   ar
    24    17    18   ar
    25    18    19    1
    26    18    20   ar
    27    20    21   ar
    28     6     2    1
    29    14     8   ar
    30    21    15   ar
    31    27    22   ar
    32     3     7    1
