@<TRIPOS>MOLECULE
*****
 35 37 0 0 0
SMALL
GASTEIGER

@<TRIPOS>ATOM
      1 C         138.4773  139.6690  160.4777 C.ar    1  UNL1        0.1321
      2 N         138.0802  139.9452  159.0579 N.ar    1  UNL1       -0.2291
      3 C         139.0303  139.6345  157.9395 C.ar    1  UNL1        0.1003
      4 C         140.3774  139.0476  158.2410 C.ar    1  UNL1        0.0208
      5 C         140.7744  138.7714  159.6608 C.ar    1  UNL1        0.0043
      6 C         142.1215  138.1845  159.9623 C.ar    1  UNL1        0.0014
      7 C         142.5186  137.9083  161.3822 C.ar    1  UNL1        0.0147
      8 C         141.5685  138.2190  162.5006 C.ar    1  UNL1        0.0504
      9 C         140.2214  138.8059  162.1991 C.ar    1  UNL1        0.0174
     10 C         139.8244  139.0821  160.7792 C.ar    1  UNL1        0.0330
     11 N         141.9655  137.9428  163.9205 N.am    1  UNL1       -0.2839
     12 C         142.8409  138.9131  164.6568 C.2     1  UNL1        0.2261
     13 O         143.3192  140.1597  163.9733 O.2     1  UNL1       -0.2748
     14 H         141.6516  137.1246  164.3691 H       1  UNL1        0.1549
     15 C         143.2379  138.6369  166.0767 C.3     1  UNL1        0.0854
     16 C         142.5430  139.3458  167.2012 C.3     1  UNL1        0.0096
     17 C         142.6405  140.8378  167.3214 C.3     1  UNL1        0.0005
     18 C         141.4629  141.6972  166.9686 C.3     1  UNL1        0.0005
     19 C         140.2715  141.7473  167.8786 C.3     1  UNL1        0.0096
     20 C         140.4024  142.3315  169.2540 C.3     1  UNL1        0.0871
     21 C         140.2692  141.4488  170.4595 C.2     1  UNL1        0.2443
     22 O         140.6450  141.9692  171.8152 O.2     1  UNL1       -0.2730
     23 N         139.7602  140.0458  170.3093 N.am    1  UNL1       -0.1970
     24 O         139.6271  139.1632  171.5147 O.3     1  UNL1       -0.2952
     25 H         139.5136  139.7043  169.4195 H       1  UNL1        0.1822
     26 H         139.9098  139.6499  172.3047 H       1  UNL1        0.2414
     27 N         137.5272  139.9796  161.5962 N.pl3   1  UNL1       -0.2979
     28 H         136.7382  139.4098  161.7445 H       1  UNL1        0.1536
     29 C         138.5354  144.6955  165.1661 C.3     1  UNL1        0.0310
     30 C         138.2833  143.5165  164.2736 C.ar    1  UNL1       -0.0218
     31 C         138.0883  143.7193  162.8003 C.ar    1  UNL1       -0.0030
     32 C         137.8362  142.5404  161.9078 C.ar    1  UNL1        0.0143
     33 C         137.7792  141.1586  162.4887 C.ar    1  UNL1        0.0493
     34 C         137.9743  140.9558  163.9621 C.ar    1  UNL1        0.0143
     35 C         138.2264  142.1347  164.8545 C.ar    1  UNL1       -0.0030
@<TRIPOS>BOND
     1    29    30    1
     2    30    31   ar
     3    31    32   ar
     4    32    33   ar
     5    33    27    1
     6    27     1    1
     7     1     2   ar
     8     2     3   ar
     9     3     4   ar
    10     4     5   ar
    11     5     6   ar
    12     6     7   ar
    13     7     8   ar
    14     8    11    1
    15    11    12   am
    16    12    13    2
    17    12    15    1
    18    15    16    1
    19    16    17    1
    20    17    18    1
    21    18    19    1
    22    19    20    1
    23    20    21    1
    24    21    22    2
    25    21    23   am
    26    23    24    1
    27     8     9   ar
    28     9    10   ar
    29    33    34   ar
    30    34    35   ar
    31    35    30   ar
    32    10     1   ar
    33    10     5   ar
    34    27    28    1
    35    11    14    1
    36    23    25    1
    37    24    26    1
@<TRIPOS>MOLECULE
*****
 35 37 0 0 0
SMALL
GASTEIGER

@<TRIPOS>ATOM
      1 C         143.5101  139.2143  160.3025 C.ar    1  UNL1        0.1321
      2 N         143.9914  139.6831  158.9614 N.ar    1  UNL1       -0.2291
      3 C         143.0373  139.7580  157.8064 C.ar    1  UNL1        0.1003
      4 C         141.6019  139.3642  157.9925 C.ar    1  UNL1        0.0208
      5 C         141.1206  138.8955  159.3336 C.ar    1  UNL1        0.0043
      6 C         139.6852  138.5018  159.5197 C.ar    1  UNL1        0.0014
      7 C         139.2039  138.0331  160.8608 C.ar    1  UNL1        0.0147
      8 C         140.1580  137.9581  162.0159 C.ar    1  UNL1        0.0504
      9 C         141.5934  138.3519  161.8298 C.ar    1  UNL1        0.0174
     10 C         142.0747  138.8206  160.4886 C.ar    1  UNL1        0.0330
     11 N         139.6767  137.4894  163.3570 N.am    1  UNL1       -0.2839
     12 C         138.9692  138.4418  164.2748 C.2     1  UNL1        0.2261
     13 O         138.7430  139.8629  163.8515 O.2     1  UNL1       -0.2748
     14 H         139.8252  136.5566  163.6349 H       1  UNL1        0.1549
     15 C         138.4879  137.9730  165.6160 C.3     1  UNL1        0.0854
     16 C         138.0151  138.9688  166.6332 C.3     1  UNL1        0.0096
     17 C         138.9976  139.6113  167.5669 C.3     1  UNL1        0.0005
     18 C         139.8837  140.7183  167.0776 C.3     1  UNL1        0.0005
     19 C         141.3398  140.7282  167.4377 C.3     1  UNL1        0.0096
     20 C         141.8962  139.6678  168.3409 C.3     1  UNL1        0.0871
     21 C         141.9673  139.9045  169.8205 C.2     1  UNL1        0.2443
     22 O         143.2651  139.7164  170.5486 O.2     1  UNL1       -0.2730
     23 N         140.7405  140.3293  170.5718 N.am    1  UNL1       -0.1970
     24 O         140.8116  140.5659  172.0513 O.3     1  UNL1       -0.2952
     25 H         139.8887  140.4527  170.0939 H       1  UNL1        0.1822
     26 H         141.7155  140.4012  172.3621 H       1  UNL1        0.2414
     27 N         144.4642  139.1394  161.4576 N.pl3   1  UNL1       -0.2979
     28 H         145.0719  138.3698  161.5450 H       1  UNL1        0.1536
     29 C         144.5767  143.5299  165.5455 C.3     1  UNL1        0.0310
     30 C         144.5485  142.4323  164.5235 C.ar    1  UNL1       -0.0218
     31 C         144.9098  142.7257  163.0976 C.ar    1  UNL1       -0.0030
     32 C         144.8817  141.6281  162.0756 C.ar    1  UNL1        0.0143
     33 C         144.4923  140.2370  162.4796 C.ar    1  UNL1        0.0493
     34 C         144.1310  139.9435  163.9056 C.ar    1  UNL1        0.0143
     35 C         144.1591  141.0411  164.9275 C.ar    1  UNL1       -0.0030
@<TRIPOS>BOND
     1    29    30    1
     2    30    31   ar
     3    31    32   ar
     4    32    33   ar
     5    33    27    1
     6    27     1    1
     7     1     2   ar
     8     2     3   ar
     9     3     4   ar
    10     4     5   ar
    11     5     6   ar
    12     6     7   ar
    13     7     8   ar
    14     8    11    1
    15    11    12   am
    16    12    13    2
    17    12    15    1
    18    15    16    1
    19    16    17    1
    20    17    18    1
    21    18    19    1
    22    19    20    1
    23    20    21    1
    24    21    22    2
    25    21    23   am
    26    23    24    1
    27     8     9   ar
    28     9    10   ar
    29    33    34   ar
    30    34    35   ar
    31    35    30   ar
    32    10     1   ar
    33    10     5   ar
    34    27    28    1
    35    11    14    1
    36    23    25    1
    37    24    26    1
@<TRIPOS>MOLECULE
*****
 35 37 0 0 0
SMALL
GASTEIGER

@<TRIPOS>ATOM
      1 C         143.4404  139.0313  160.3752 C.ar    1  UNL1        0.1321
      2 N         143.9315  139.2042  158.9685 N.ar    1  UNL1       -0.2291
      3 C         142.9659  139.1329  157.8229 C.ar    1  UNL1        0.1003
      4 C         141.5091  138.8888  158.0840 C.ar    1  UNL1        0.0208
      5 C         141.0180  138.7159  159.4907 C.ar    1  UNL1        0.0043
      6 C         139.5612  138.4718  159.7518 C.ar    1  UNL1        0.0014
      7 C         139.0701  138.2989  161.1586 C.ar    1  UNL1        0.0147
      8 C         140.0357  138.3702  162.3042 C.ar    1  UNL1        0.0504
      9 C         141.4925  138.6143  162.0431 C.ar    1  UNL1        0.0174
     10 C         141.9836  138.7872  160.6363 C.ar    1  UNL1        0.0330
     11 N         139.5446  138.1973  163.7109 N.am    1  UNL1       -0.2839
     12 C         138.8622  139.3343  164.4121 C.2     1  UNL1        0.2261
     13 O         138.6709  140.6441  163.7066 O.2     1  UNL1       -0.2748
     14 H         139.6702  137.3377  164.1740 H       1  UNL1        0.1549
     15 C         138.3710  139.1613  165.8189 C.3     1  UNL1        0.0854
     16 C         139.1188  139.7903  166.9570 C.3     1  UNL1        0.0096
     17 C         140.4792  140.3787  166.7265 C.3     1  UNL1        0.0005
     18 C         140.7149  141.8402  166.9679 C.3     1  UNL1        0.0005
     19 C         140.0562  142.8615  166.0887 C.3     1  UNL1        0.0096
     20 C         140.7938  143.4239  164.9098 C.3     1  UNL1        0.0871
     21 C         140.2097  144.5687  164.1363 C.2     1  UNL1        0.2443
     22 O         138.7251  144.7822  164.1189 O.2     1  UNL1       -0.2730
     23 N         141.1102  145.4999  163.3801 N.am    1  UNL1       -0.1970
     24 O         140.5262  146.6446  162.6065 O.3     1  UNL1       -0.2952
     25 H         142.0846  145.3597  163.3915 H       1  UNL1        0.1822
     26 H         139.5607  146.6388  162.6998 H       1  UNL1        0.2414
     27 N         144.4061  139.1026  161.5208 N.pl3   1  UNL1       -0.2979
     28 H         145.0312  138.3598  161.6846 H       1  UNL1        0.1536
     29 C         144.4588  143.9141  165.1050 C.3     1  UNL1        0.0310
     30 C         144.4456  142.7112  164.2089 C.ar    1  UNL1       -0.0218
     31 C         144.2188  141.3466  164.7887 C.ar    1  UNL1       -0.0030
     32 C         144.2056  140.1437  163.8927 C.ar    1  UNL1        0.0143
     33 C         144.4193  140.3054  162.4169 C.ar    1  UNL1        0.0493
     34 C         144.6461  141.6702  161.8370 C.ar    1  UNL1        0.0143
     35 C         144.6593  142.8730  162.7330 C.ar    1  UNL1       -0.0030
@<TRIPOS>BOND
     1    29    30    1
     2    30    31   ar
     3    31    32   ar
     4    32    33   ar
     5    33    27    1
     6    27     1    1
     7     1     2   ar
     8     2     3   ar
     9     3     4   ar
    10     4     5   ar
    11     5     6   ar
    12     6     7   ar
    13     7     8   ar
    14     8    11    1
    15    11    12   am
    16    12    13    2
    17    12    15    1
    18    15    16    1
    19    16    17    1
    20    17    18    1
    21    18    19    1
    22    19    20    1
    23    20    21    1
    24    21    22    2
    25    21    23   am
    26    23    24    1
    27     8     9   ar
    28     9    10   ar
    29    33    34   ar
    30    34    35   ar
    31    35    30   ar
    32    10     1   ar
    33    10     5   ar
    34    27    28    1
    35    11    14    1
    36    23    25    1
    37    24    26    1
@<TRIPOS>MOLECULE
*****
 35 37 0 0 0
SMALL
GASTEIGER

@<TRIPOS>ATOM
      1 C         141.0211  141.7210  167.2877 C.ar    1  UNL1        0.1321
      2 N         141.0530  141.9936  168.7623 N.ar    1  UNL1       -0.2291
      3 C         140.1455  141.2353  169.6850 C.ar    1  UNL1        0.1003
      4 C         139.2059  140.2045  169.1329 C.ar    1  UNL1        0.0208
      5 C         139.1740  139.9320  167.6583 C.ar    1  UNL1        0.0043
      6 C         138.2345  138.9011  167.1063 C.ar    1  UNL1        0.0014
      7 C         138.2026  138.6286  165.6316 C.ar    1  UNL1        0.0147
      8 C         139.1102  139.3869  164.7089 C.ar    1  UNL1        0.0504
      9 C         140.0497  140.4177  165.2609 C.ar    1  UNL1        0.0174
     10 C         140.0816  140.6902  166.7357 C.ar    1  UNL1        0.0330
     11 N         139.0783  139.1143  163.2342 N.am    1  UNL1       -0.2839
     12 C         140.1891  138.3386  162.5907 C.2     1  UNL1        0.2261
     13 O         141.3319  137.8354  163.4218 O.2     1  UNL1       -0.2748
     14 H         138.3282  139.4446  162.6887 H       1  UNL1        0.1549
     15 C         140.1572  138.0660  161.1159 C.3     1  UNL1        0.0854
     16 C         140.8493  138.9979  160.1659 C.3     1  UNL1        0.0096
     17 C         141.7877  140.0436  160.6910 C.3     1  UNL1        0.0005
     18 C         141.2631  141.3927  161.0842 C.3     1  UNL1        0.0005
     19 C         140.4801  142.2092  160.0992 C.3     1  UNL1        0.0096
     20 C         139.1096  142.7035  160.4562 C.3     1  UNL1        0.0871
     21 C         138.1568  141.8074  161.1905 C.2     1  UNL1        0.2443
     22 O         137.7644  140.4855  160.6002 O.2     1  UNL1       -0.2730
     23 N         137.5963  142.2332  162.5151 N.am    1  UNL1       -0.1970
     24 O         136.6435  141.3372  163.2493 O.3     1  UNL1       -0.2952
     25 H         137.8538  143.1009  162.9025 H       1  UNL1        0.1822
     26 H         136.4973  140.5288  162.7336 H       1  UNL1        0.2414
     27 N         141.9287  142.4793  166.3650 N.pl3   1  UNL1       -0.2979
     28 H         142.9054  142.4062  166.4653 H       1  UNL1        0.1536
     29 C         139.6069  145.9581  162.0630 C.3     1  UNL1        0.0310
     30 C         140.1873  145.0884  163.1385 C.ar    1  UNL1       -0.0218
     31 C         141.5692  144.5260  162.9839 C.ar    1  UNL1       -0.0030
     32 C         142.1497  143.6563  164.0594 C.ar    1  UNL1        0.0143
     33 C         141.3483  143.3490  165.2895 C.ar    1  UNL1        0.0493
     34 C         139.9663  143.9114  165.4442 C.ar    1  UNL1        0.0143
     35 C         139.3858  144.7811  164.3687 C.ar    1  UNL1       -0.0030
@<TRIPOS>BOND
     1    29    30    1
     2    30    31   ar
     3    31    32   ar
     4    32    33   ar
     5    33    27    1
     6    27     1    1
     7     1     2   ar
     8     2     3   ar
     9     3     4   ar
    10     4     5   ar
    11     5     6   ar
    12     6     7   ar
    13     7     8   ar
    14     8    11    1
    15    11    12   am
    16    12    13    2
    17    12    15    1
    18    15    16    1
    19    16    17    1
    20    17    18    1
    21    18    19    1
    22    19    20    1
    23    20    21    1
    24    21    22    2
    25    21    23   am
    26    23    24    1
    27     8     9   ar
    28     9    10   ar
    29    33    34   ar
    30    34    35   ar
    31    35    30   ar
    32    10     1   ar
    33    10     5   ar
    34    27    28    1
    35    11    14    1
    36    23    25    1
    37    24    26    1
@<TRIPOS>MOLECULE
*****
 35 37 0 0 0
SMALL
GASTEIGER

@<TRIPOS>ATOM
      1 C         140.4037  142.3962  167.0064 C.ar    1  UNL1        0.1321
      2 N         140.7236  142.7023  168.4395 N.ar    1  UNL1       -0.2291
      3 C         140.2912  141.7588  169.5225 C.ar    1  UNL1        0.1003
      4 C         139.5389  140.5093  169.1723 C.ar    1  UNL1        0.0208
      5 C         139.2189  140.2032  167.7392 C.ar    1  UNL1        0.0043
      6 C         138.4666  138.9536  167.3890 C.ar    1  UNL1        0.0014
      7 C         138.1467  138.6475  165.9559 C.ar    1  UNL1        0.0147
      8 C         138.5791  139.5910  164.8728 C.ar    1  UNL1        0.0504
      9 C         139.3314  140.8405  165.2230 C.ar    1  UNL1        0.0174
     10 C         139.6514  141.1466  166.6562 C.ar    1  UNL1        0.0330
     11 N         138.2592  139.2849  163.4397 N.am    1  UNL1       -0.2839
     12 C         139.3031  138.6749  162.5519 C.2     1  UNL1        0.2261
     13 O         140.6669  138.3709  163.0973 O.2     1  UNL1       -0.2748
     14 H         137.3640  139.4844  163.0817 H       1  UNL1        0.1549
     15 C         138.9831  138.3688  161.1187 C.3     1  UNL1        0.0854
     16 C         138.5854  139.4745  160.1864 C.3     1  UNL1        0.0096
     17 C         139.3862  140.7421  160.1415 C.3     1  UNL1        0.0005
     18 C         139.3027  141.7225  161.2737 C.3     1  UNL1        0.0005
     19 C         138.1568  142.6875  161.3471 C.3     1  UNL1        0.0096
     20 C         137.9019  143.4544  162.6108 C.3     1  UNL1        0.0871
     21 C         138.7229  144.6686  162.9298 C.2     1  UNL1        0.2443
     22 O         138.9998  145.0326  164.3584 O.2     1  UNL1       -0.2730
     23 N         139.2670  145.5188  161.8203 N.am    1  UNL1       -0.1970
     24 O         140.0880  146.7329  162.1392 O.3     1  UNL1       -0.2952
     25 H         139.0852  145.2799  160.8826 H       1  UNL1        0.1822
     26 H         140.1709  146.8235  163.1014 H       1  UNL1        0.2414
     27 N         140.8361  143.3396  165.9233 N.pl3   1  UNL1       -0.2979
     28 H         140.3472  144.1821  165.7802 H       1  UNL1        0.1536
     29 C         145.5454  141.9790  162.4634 C.3     1  UNL1        0.0310
     30 C         144.3681  142.3192  163.3284 C.ar    1  UNL1       -0.0218
     31 C         143.0512  142.6667  162.6999 C.ar    1  UNL1       -0.0030
     32 C         141.8739  143.0068  163.5649 C.ar    1  UNL1        0.0143
     33 C         142.0134  142.9995  165.0583 C.ar    1  UNL1        0.0493
     34 C         143.3304  142.6520  165.6869 C.ar    1  UNL1        0.0143
     35 C         144.5077  142.3118  164.8219 C.ar    1  UNL1       -0.0030
@<TRIPOS>BOND
     1    29    30    1
     2    30    31   ar
     3    31    32   ar
     4    32    33   ar
     5    33    27    1
     6    27     1    1
     7     1     2   ar
     8     2     3   ar
     9     3     4   ar
    10     4     5   ar
    11     5     6   ar
    12     6     7   ar
    13     7     8   ar
    14     8    11    1
    15    11    12   am
    16    12    13    2
    17    12    15    1
    18    15    16    1
    19    16    17    1
    20    17    18    1
    21    18    19    1
    22    19    20    1
    23    20    21    1
    24    21    22    2
    25    21    23   am
    26    23    24    1
    27     8     9   ar
    28     9    10   ar
    29    33    34   ar
    30    34    35   ar
    31    35    30   ar
    32    10     1   ar
    33    10     5   ar
    34    27    28    1
    35    11    14    1
    36    23    25    1
    37    24    26    1
@<TRIPOS>MOLECULE
*****
 35 37 0 0 0
SMALL
GASTEIGER

@<TRIPOS>ATOM
      1 C         142.2008  139.6323  165.5592 C.ar    1  UNL1        0.1321
      2 N         143.0364  138.5961  166.2505 N.ar    1  UNL1       -0.2291
      3 C         144.4574  138.3728  165.8252 C.ar    1  UNL1        0.1003
      4 C         145.0427  139.1856  164.7086 C.ar    1  UNL1        0.0208
      5 C         144.2070  140.2218  164.0173 C.ar    1  UNL1        0.0043
      6 C         144.7922  141.0346  162.9007 C.ar    1  UNL1        0.0014
      7 C         143.9565  142.0707  162.2094 C.ar    1  UNL1        0.0147
      8 C         142.5355  142.2942  162.6348 C.ar    1  UNL1        0.0504
      9 C         141.9502  141.4813  163.7514 C.ar    1  UNL1        0.0174
     10 C         142.7860  140.4451  164.4426 C.ar    1  UNL1        0.0330
     11 N         141.6998  143.3303  161.9435 N.am    1  UNL1       -0.2839
     12 C         141.5529  144.6975  162.5429 C.2     1  UNL1        0.2261
     13 O         142.2417  145.0285  163.8336 O.2     1  UNL1       -0.2748
     14 H         141.2477  143.1131  161.0963 H       1  UNL1        0.1549
     15 C         140.7172  145.7337  161.8515 C.3     1  UNL1        0.0854
     16 C         139.2350  145.7753  162.0784 C.3     1  UNL1        0.0096
     17 C         138.5233  144.5663  162.6092 C.3     1  UNL1        0.0005
     18 C         138.4653  144.3190  164.0875 C.3     1  UNL1        0.0005
     19 C         137.6037  143.2178  164.6305 C.3     1  UNL1        0.0096
     20 C         138.1565  141.8298  164.7647 C.3     1  UNL1        0.0871
     21 C         138.0693  140.8731  163.6127 C.2     1  UNL1        0.2443
     22 O         138.9989  139.6980  163.5416 O.2     1  UNL1       -0.2730
     23 N         137.0526  141.0916  162.5317 N.am    1  UNL1       -0.1970
     24 O         136.9654  140.1349  161.3797 O.3     1  UNL1       -0.2952
     25 H         136.4425  141.8628  162.5783 H       1  UNL1        0.1822
     26 H         137.6317  139.4382  161.4868 H       1  UNL1        0.2414
     27 N         140.7797  139.8557  165.9846 N.pl3   1  UNL1       -0.2979
     28 H         140.0414  139.4874  165.4474 H       1  UNL1        0.1536
     29 C         139.5954  142.9942  170.9593 C.3     1  UNL1        0.0310
     30 C         139.8915  142.2095  169.7156 C.ar    1  UNL1       -0.0218
     31 C         140.6519  142.8463  168.5903 C.ar    1  UNL1       -0.0030
     32 C         140.9480  142.0617  167.3467 C.ar    1  UNL1        0.0143
     33 C         140.4836  140.6403  167.2282 C.ar    1  UNL1        0.0493
     34 C         139.7232  140.0035  168.3535 C.ar    1  UNL1        0.0143
     35 C         139.4271  140.7881  169.5972 C.ar    1  UNL1       -0.0030
@<TRIPOS>BOND
     1    29    30    1
     2    30    31   ar
     3    31    32   ar
     4    32    33   ar
     5    33    27    1
     6    27     1    1
     7     1     2   ar
     8     2     3   ar
     9     3     4   ar
    10     4     5   ar
    11     5     6   ar
    12     6     7   ar
    13     7     8   ar
    14     8    11    1
    15    11    12   am
    16    12    13    2
    17    12    15    1
    18    15    16    1
    19    16    17    1
    20    17    18    1
    21    18    19    1
    22    19    20    1
    23    20    21    1
    24    21    22    2
    25    21    23   am
    26    23    24    1
    27     8     9   ar
    28     9    10   ar
    29    33    34   ar
    30    34    35   ar
    31    35    30   ar
    32    10     1   ar
    33    10     5   ar
    34    27    28    1
    35    11    14    1
    36    23    25    1
    37    24    26    1
@<TRIPOS>MOLECULE
*****
 35 37 0 0 0
SMALL
GASTEIGER

@<TRIPOS>ATOM
      1 C         141.0902  141.7471  167.2794 C.ar    1  UNL1        0.1321
      2 N         141.0488  142.2584  168.6889 N.ar    1  UNL1       -0.2291
      3 C         140.1017  141.6496  169.6800 C.ar    1  UNL1        0.1003
      4 C         139.1960  140.5295  169.2615 C.ar    1  UNL1        0.0208
      5 C         139.2374  140.0183  167.8520 C.ar    1  UNL1        0.0043
      6 C         138.3317  138.8982  167.4335 C.ar    1  UNL1        0.0014
      7 C         138.3731  138.3869  166.0240 C.ar    1  UNL1        0.0147
      8 C         139.3203  138.9957  165.0328 C.ar    1  UNL1        0.0504
      9 C         140.2260  140.1158  165.4513 C.ar    1  UNL1        0.0174
     10 C         140.1845  140.6271  166.8609 C.ar    1  UNL1        0.0330
     11 N         139.3617  138.4845  163.6233 N.am    1  UNL1       -0.2839
     12 C         138.5363  139.1472  162.5605 C.2     1  UNL1        0.2261
     13 O         137.6695  140.3213  162.9072 O.2     1  UNL1       -0.2748
     14 H         139.9306  137.7139  163.3957 H       1  UNL1        0.1549
     15 C         138.5778  138.6359  161.1509 C.3     1  UNL1        0.0854
     16 C         138.9169  139.5672  160.0249 C.3     1  UNL1        0.0096
     17 C         139.6942  140.8209  160.2968 C.3     1  UNL1        0.0005
     18 C         141.1585  140.7418  160.6126 C.3     1  UNL1        0.0005
     19 C         141.6277  140.8709  162.0314 C.3     1  UNL1        0.0096
     20 C         142.7361  139.9959  162.5373 C.3     1  UNL1        0.0871
     21 C         143.9252  140.6088  163.2160 C.2     1  UNL1        0.2443
     22 O         144.0153  140.6113  164.7133 O.2     1  UNL1       -0.2730
     23 N         145.0240  141.2190  162.3974 N.am    1  UNL1       -0.1970
     24 O         146.2130  141.8319  163.0761 O.3     1  UNL1       -0.2952
     25 H         144.9648  141.2173  161.4147 H       1  UNL1        0.1822
     26 H         146.1143  141.7501  164.0376 H       1  UNL1        0.2414
     27 N         142.0374  142.3559  166.2882 N.pl3   1  UNL1       -0.2979
     28 H         142.9974  142.1416  166.3290 H       1  UNL1        0.1536
     29 C         139.9750  146.0972  162.0752 C.3     1  UNL1        0.0310
     30 C         140.4906  145.1619  163.1285 C.ar    1  UNL1       -0.0218
     31 C         139.5791  144.6866  164.2207 C.ar    1  UNL1       -0.0030
     32 C         140.0946  143.7512  165.2740 C.ar    1  UNL1        0.0143
     33 C         141.5218  143.2913  165.2350 C.ar    1  UNL1        0.0493
     34 C         142.4335  143.7666  164.1427 C.ar    1  UNL1        0.0143
     35 C         141.9179  144.7019  163.0894 C.ar    1  UNL1       -0.0030
@<TRIPOS>BOND
     1    29    30    1
     2    30    31   ar
     3    31    32   ar
     4    32    33   ar
     5    33    27    1
     6    27     1    1
     7     1     2   ar
     8     2     3   ar
     9     3     4   ar
    10     4     5   ar
    11     5     6   ar
    12     6     7   ar
    13     7     8   ar
    14     8    11    1
    15    11    12   am
    16    12    13    2
    17    12    15    1
    18    15    16    1
    19    16    17    1
    20    17    18    1
    21    18    19    1
    22    19    20    1
    23    20    21    1
    24    21    22    2
    25    21    23   am
    26    23    24    1
    27     8     9   ar
    28     9    10   ar
    29    33    34   ar
    30    34    35   ar
    31    35    30   ar
    32    10     1   ar
    33    10     5   ar
    34    27    28    1
    35    11    14    1
    36    23    25    1
    37    24    26    1
@<TRIPOS>MOLECULE
*****
 35 37 0 0 0
SMALL
GASTEIGER

@<TRIPOS>ATOM
      1 C         142.0469  140.0606  167.4229 C.ar    1  UNL1        0.1321
      2 N         142.3079  140.5449  168.8183 N.ar    1  UNL1       -0.2291
      3 C         141.1817  140.6310  169.8053 C.ar    1  UNL1        0.1003
      4 C         139.7944  140.2328  169.3968 C.ar    1  UNL1        0.0208
      5 C         139.5333  139.7485  168.0014 C.ar    1  UNL1        0.0043
      6 C         138.1461  139.3502  167.5929 C.ar    1  UNL1        0.0014
      7 C         137.8850  138.8659  166.1975 C.ar    1  UNL1        0.0147
      8 C         139.0113  138.7799  165.2104 C.ar    1  UNL1        0.0504
      9 C         140.3986  139.1781  165.6189 C.ar    1  UNL1        0.0174
     10 C         140.6596  139.6624  167.0144 C.ar    1  UNL1        0.0330
     11 N         138.7502  138.2956  163.8150 N.am    1  UNL1       -0.2839
     12 C         138.1898  139.2342  162.7879 C.2     1  UNL1        0.2261
     13 O         137.8904  140.6571  163.1562 O.2     1  UNL1       -0.2748
     14 H         138.9467  137.3617  163.5732 H       1  UNL1        0.1549
     15 C         137.9288  138.7498  161.3924 C.3     1  UNL1        0.0854
     16 C         138.9561  138.9622  160.3203 C.3     1  UNL1        0.0096
     17 C         140.4156  138.8462  160.6466 C.3     1  UNL1        0.0005
     18 C         141.2219  140.0797  160.9265 C.3     1  UNL1        0.0005
     19 C         141.1732  141.2393  159.9763 C.3     1  UNL1        0.0096
     20 C         140.9849  142.6318  160.5013 C.3     1  UNL1        0.0871
     21 C         139.9084  142.9150  161.5068 C.2     1  UNL1        0.2443
     22 O         140.2511  143.0183  162.9635 O.2     1  UNL1       -0.2730
     23 N         138.4893  143.0951  161.0556 N.am    1  UNL1       -0.1970
     24 O         137.4128  143.3784  162.0610 O.3     1  UNL1       -0.2952
     25 H         138.2644  143.0273  160.0995 H       1  UNL1        0.1822
     26 H         137.8009  143.4124  162.9493 H       1  UNL1        0.2414
     27 N         143.1731  139.9746  166.4358 N.pl3   1  UNL1       -0.2979
     28 H         143.7566  139.1817  166.4226 H       1  UNL1        0.1536
     29 C         144.1223  144.4626  162.5685 C.3     1  UNL1        0.0310
     30 C         143.8850  143.3406  163.5353 C.ar    1  UNL1       -0.0218
     31 C         143.8245  143.6196  165.0079 C.ar    1  UNL1       -0.0030
     32 C         143.5872  142.4976  165.9747 C.ar    1  UNL1        0.0143
     33 C         143.4104  141.0966  165.4690 C.ar    1  UNL1        0.0493
     34 C         143.4710  140.8175  163.9964 C.ar    1  UNL1        0.0143
     35 C         143.7083  141.9395  163.0296 C.ar    1  UNL1       -0.0030
@<TRIPOS>BOND
     1    29    30    1
     2    30    31   ar
     3    31    32   ar
     4    32    33   ar
     5    33    27    1
     6    27     1    1
     7     1     2   ar
     8     2     3   ar
     9     3     4   ar
    10     4     5   ar
    11     5     6   ar
    12     6     7   ar
    13     7     8   ar
    14     8    11    1
    15    11    12   am
    16    12    13    2
    17    12    15    1
    18    15    16    1
    19    16    17    1
    20    17    18    1
    21    18    19    1
    22    19    20    1
    23    20    21    1
    24    21    22    2
    25    21    23   am
    26    23    24    1
    27     8     9   ar
    28     9    10   ar
    29    33    34   ar
    30    34    35   ar
    31    35    30   ar
    32    10     1   ar
    33    10     5   ar
    34    27    28    1
    35    11    14    1
    36    23    25    1
    37    24    26    1
@<TRIPOS>MOLECULE
*****
 35 37 0 0 0
SMALL
GASTEIGER

@<TRIPOS>ATOM
      1 C         143.9916  142.2260  159.9862 C.ar    1  UNL1        0.1321
      2 N         144.5099  141.8909  158.6191 N.ar    1  UNL1       -0.2291
      3 C         143.9470  142.5829  157.4132 C.ar    1  UNL1        0.1003
      4 C         142.8659  143.6101  157.5744 C.ar    1  UNL1        0.0208
      5 C         142.3476  143.9453  158.9415 C.ar    1  UNL1        0.0043
      6 C         141.2664  144.9724  159.1027 C.ar    1  UNL1        0.0014
      7 C         140.7482  145.3076  160.4698 C.ar    1  UNL1        0.0147
      8 C         141.3110  144.6155  161.6758 C.ar    1  UNL1        0.0504
      9 C         142.3922  143.5883  161.5146 C.ar    1  UNL1        0.0174
     10 C         142.9105  143.2532  160.1474 C.ar    1  UNL1        0.0330
     11 N         140.7928  144.9507  163.0429 N.am    1  UNL1       -0.2839
     12 C         139.5557  144.2792  163.5615 C.2     1  UNL1        0.2261
     13 O         138.8370  143.2726  162.7129 O.2     1  UNL1       -0.2748
     14 H         141.2645  145.6113  163.5999 H       1  UNL1        0.1549
     15 C         139.0375  144.6144  164.9287 C.3     1  UNL1        0.0854
     16 C         139.4173  143.7635  166.1041 C.3     1  UNL1        0.0096
     17 C         140.7119  143.0059  166.0944 C.3     1  UNL1        0.0005
     18 C         140.8113  141.7003  165.3627 C.3     1  UNL1        0.0005
     19 C         140.3778  140.4302  166.0327 C.3     1  UNL1        0.0096
     20 C         138.9553  139.9687  165.9165 C.3     1  UNL1        0.0871
     21 C         138.2368  140.0760  164.6041 C.2     1  UNL1        0.2443
     22 O         138.4009  139.0026  163.5692 O.2     1  UNL1       -0.2730
     23 N         137.3542  141.2567  164.3266 N.am    1  UNL1       -0.1970
     24 O         136.6357  141.3640  163.0143 O.3     1  UNL1       -0.2952
     25 H         137.2465  141.9611  165.0058 H       1  UNL1        0.1822
     26 H         136.8493  140.5937  162.4648 H       1  UNL1        0.2414
     27 N         144.5545  141.5340  161.1921 N.pl3   1  UNL1       -0.2979
     28 H         145.4471  141.7784  161.5281 H       1  UNL1        0.1536
     29 C         141.3664  137.2762  163.9683 C.3     1  UNL1        0.0310
     30 C         142.1634  138.3407  163.2742 C.ar    1  UNL1       -0.0218
     31 C         141.8214  138.7371  161.8686 C.ar    1  UNL1       -0.0030
     32 C         142.6185  139.8016  161.1746 C.ar    1  UNL1        0.0143
     33 C         143.7575  140.4695  161.8862 C.ar    1  UNL1        0.0493
     34 C         144.0995  140.0731  163.2919 C.ar    1  UNL1        0.0143
     35 C         143.3025  139.0086  163.9859 C.ar    1  UNL1       -0.0030
@<TRIPOS>BOND
     1    29    30    1
     2    30    31   ar
     3    31    32   ar
     4    32    33   ar
     5    33    27    1
     6    27     1    1
     7     1     2   ar
     8     2     3   ar
     9     3     4   ar
    10     4     5   ar
    11     5     6   ar
    12     6     7   ar
    13     7     8   ar
    14     8    11    1
    15    11    12   am
    16    12    13    2
    17    12    15    1
    18    15    16    1
    19    16    17    1
    20    17    18    1
    21    18    19    1
    22    19    20    1
    23    20    21    1
    24    21    22    2
    25    21    23   am
    26    23    24    1
    27     8     9   ar
    28     9    10   ar
    29    33    34   ar
    30    34    35   ar
    31    35    30   ar
    32    10     1   ar
    33    10     5   ar
    34    27    28    1
    35    11    14    1
    36    23    25    1
    37    24    26    1
