@<TRIPOS>MOLECULE
*****
 29 32 0 0 0
SMALL
GASTEIGER

@<TRIPOS>ATOM
      1 N         144.4800  137.7795  161.6920 N.3     1  UNL1       -0.3206
      2 C         143.5085  138.8009  162.2048 C.3     1  UNL1        0.0750
      3 C         143.3400  139.0005  163.6819 C.3     1  UNL1        0.1079
      4 N         142.3685  140.0219  164.1947 N.pl3   1  UNL1       -0.2905
      5 C         141.5654  140.8437  163.2304 C.3     1  UNL1        0.0926
      6 C         141.7339  140.6441  161.7533 C.3     1  UNL1        0.0273
      7 C         142.7055  139.6227  161.2405 C.3     1  UNL1        0.0422
      8 H         144.9351  137.3178  162.4795 H       1  UNL1        0.1189
      9 H         145.1839  138.2396  161.1147 H       1  UNL1        0.1189
     10 C         142.1999  140.2215  165.6718 C.ar    1  UNL1        0.1520
     11 C         142.8053  139.2436  166.6347 C.ar    1  UNL1        0.0392
     12 C         142.6367  139.4433  168.1117 C.ar    1  UNL1        0.0418
     13 C         141.8628  140.6209  168.6259 C.ar    1  UNL1        0.1672
     14 N         141.6943  140.8205  170.1030 N.ar    1  UNL1       -0.1887
     15 C         140.9203  141.9981  170.6171 C.ar    1  UNL1        0.2822
     16 O         140.7518  142.1978  172.0942 O.2     1  UNL1       -0.2651
     17 C         140.3149  142.9760  169.6542 C.ar    1  UNL1        0.0832
     18 C         140.4835  142.7763  168.1771 C.ar    1  UNL1        0.1071
     19 N         141.2574  141.5988  167.6630 N.ar    1  UNL1       -0.2094
     20 N         141.4260  141.3991  166.1859 N.ar    1  UNL1       -0.1487
     21 C         142.8740  139.4231  159.7634 C.ar    1  UNL1        0.0087
     22 C         142.2386  138.2437  159.0887 C.ar    1  UNL1        0.0300
     23 C         142.4071  138.0440  157.6116 C.ar    1  UNL1        0.1672
     24 F         141.7717  136.8646  156.9369 F       1  UNL1       -0.2018
     25 C         143.2110  139.0238  156.8093 C.ar    1  UNL1        0.1696
     26 F         143.3794  138.8242  155.3322 F       1  UNL1       -0.2017
     27 C         143.8463  140.2033  157.4840 C.ar    1  UNL1        0.0612
     28 C         143.6778  140.4029  158.9611 C.ar    1  UNL1        0.1386
     29 F         144.3132  141.5823  159.6358 F       1  UNL1       -0.2044
@<TRIPOS>BOND
     1     2     1    1
     2     2     3    1
     3     3     4    1
     4     4    10    1
     5    10    11   ar
     6    11    12   ar
     7    12    13   ar
     8    13    14   ar
     9    14    15   ar
    10    15    16    2
    11    15    17   ar
    12    17    18   ar
    13    18    19   ar
    14    19    20   ar
    15     4     5    1
    16     5     6    1
    17     6     7    1
    18     7    21    1
    19    21    22   ar
    20    22    23   ar
    21    23    24    1
    22    23    25   ar
    23    25    26    1
    24    25    27   ar
    25    27    28   ar
    26    28    29    1
    27     7     2    1
    28    28    21   ar
    29    20    10   ar
    30    19    13   ar
    31     1     8    1
    32     1     9    1
@<TRIPOS>MOLECULE
*****
 29 32 0 0 0
SMALL
GASTEIGER

@<TRIPOS>ATOM
      1 N         142.6669  144.8129  161.6523 N.3     1  UNL1       -0.3206
      2 C         141.5618  143.8074  161.7854 C.3     1  UNL1        0.0750
      3 C         141.2847  143.1690  163.1142 C.3     1  UNL1        0.1079
      4 N         140.1796  142.1635  163.2473 N.pl3   1  UNL1       -0.2905
      5 C         139.3514  141.7965  162.0517 C.3     1  UNL1        0.0926
      6 C         139.6285  142.4350  160.7229 C.3     1  UNL1        0.0273
      7 C         140.7336  143.4404  160.5897 C.3     1  UNL1        0.0422
      8 H         143.1214  144.9403  162.5565 H       1  UNL1        0.1189
      9 H         142.2807  145.7029  161.3374 H       1  UNL1        0.1189
     10 C         139.9025  141.5251  164.5761 C.ar    1  UNL1        0.1520
     11 C         139.1459  140.2317  164.6435 C.ar    1  UNL1        0.0392
     12 C         138.8688  139.5932  165.9723 C.ar    1  UNL1        0.0418
     13 C         139.3484  140.2482  167.2336 C.ar    1  UNL1        0.1672
     14 N         139.0714  139.6097  168.5624 N.ar    1  UNL1       -0.1887
     15 C         139.5510  140.2647  169.8238 C.ar    1  UNL1        0.2822
     16 O         139.2739  139.6263  171.1525 O.2     1  UNL1       -0.2651
     17 C         140.3076  141.5582  169.7563 C.ar    1  UNL1        0.0832
     18 C         140.5846  142.1966  168.4275 C.ar    1  UNL1        0.1071
     19 N         140.1051  141.5416  167.1662 N.ar    1  UNL1       -0.2094
     20 N         140.3821  142.1800  165.8374 N.ar    1  UNL1       -0.1487
     21 C         141.0107  144.0789  159.2610 C.ar    1  UNL1        0.0087
     22 C         140.2152  145.2724  158.8220 C.ar    1  UNL1        0.0300
     23 C         140.4922  145.9109  157.4932 C.ar    1  UNL1        0.1672
     24 F         139.6968  147.1044  157.0542 F       1  UNL1       -0.2018
     25 C         141.5647  145.3558  156.6034 C.ar    1  UNL1        0.1696
     26 F         141.8417  145.9942  155.2747 F       1  UNL1       -0.2017
     27 C         142.3601  144.1622  157.0425 C.ar    1  UNL1        0.0612
     28 C         142.0831  143.5238  158.3712 C.ar    1  UNL1        0.1386
     29 F         142.8786  142.3303  158.8102 F       1  UNL1       -0.2044
@<TRIPOS>BOND
     1     2     1    1
     2     2     3    1
     3     3     4    1
     4     4    10    1
     5    10    11   ar
     6    11    12   ar
     7    12    13   ar
     8    13    14   ar
     9    14    15   ar
    10    15    16    2
    11    15    17   ar
    12    17    18   ar
    13    18    19   ar
    14    19    20   ar
    15     4     5    1
    16     5     6    1
    17     6     7    1
    18     7    21    1
    19    21    22   ar
    20    22    23   ar
    21    23    24    1
    22    23    25   ar
    23    25    26    1
    24    25    27   ar
    25    27    28   ar
    26    28    29    1
    27     7     2    1
    28    28    21   ar
    29    20    10   ar
    30    19    13   ar
    31     1     8    1
    32     1     9    1
@<TRIPOS>MOLECULE
*****
 29 32 0 0 0
SMALL
GASTEIGER

@<TRIPOS>ATOM
      1 N         137.0872  138.7319  161.3461 N.3     1  UNL1       -0.3206
      2 C         138.2777  139.3795  161.9891 C.3     1  UNL1        0.0750
      3 C         138.3252  139.5503  163.4786 C.3     1  UNL1        0.1079
      4 N         139.5156  140.1978  164.1217 N.pl3   1  UNL1       -0.2905
      5 C         140.6586  140.6745  163.2753 C.3     1  UNL1        0.0926
      6 C         140.6111  140.5037  161.7858 C.3     1  UNL1        0.0273
      7 C         139.4206  139.8562  161.1427 C.3     1  UNL1        0.0422
      8 H         136.4119  138.4719  162.0649 H       1  UNL1        0.1189
      9 H         137.3854  137.8970  160.8418 H       1  UNL1        0.1189
     10 C         139.5631  140.3687  165.6112 C.ar    1  UNL1        0.1520
     11 C         138.8581  139.3887  166.5014 C.ar    1  UNL1        0.0392
     12 C         138.9056  139.5596  167.9909 C.ar    1  UNL1        0.0418
     13 C         139.6582  140.7105  168.5901 C.ar    1  UNL1        0.1672
     14 N         139.7057  140.8813  170.0796 N.ar    1  UNL1       -0.1887
     15 C         140.4583  142.0322  170.6789 C.ar    1  UNL1        0.2822
     16 O         140.5058  142.2031  172.1683 O.2     1  UNL1       -0.2651
     17 C         141.1633  143.0122  169.7886 C.ar    1  UNL1        0.0832
     18 C         141.1158  142.8414  168.2992 C.ar    1  UNL1        0.1071
     19 N         140.3632  141.6905  167.6999 N.ar    1  UNL1       -0.2094
     20 N         140.3157  141.5196  166.2105 N.ar    1  UNL1       -0.1487
     21 C         139.3732  139.6853  159.6532 C.ar    1  UNL1        0.0087
     22 C         139.9541  138.4557  159.0205 C.ar    1  UNL1        0.0300
     23 C         139.9067  138.2848  157.5310 C.ar    1  UNL1        0.1672
     24 F         140.4877  137.0552  156.8982 F       1  UNL1       -0.2018
     25 C         139.2782  139.3436  156.6743 C.ar    1  UNL1        0.1696
     26 F         139.2308  139.1728  155.1848 F       1  UNL1       -0.2017
     27 C         138.6972  140.5733  157.3071 C.ar    1  UNL1        0.0612
     28 C         138.7447  140.7442  158.7965 C.ar    1  UNL1        0.1386
     29 F         138.1637  141.9738  159.4293 F       1  UNL1       -0.2044
@<TRIPOS>BOND
     1     2     1    1
     2     2     3    1
     3     3     4    1
     4     4    10    1
     5    10    11   ar
     6    11    12   ar
     7    12    13   ar
     8    13    14   ar
     9    14    15   ar
    10    15    16    2
    11    15    17   ar
    12    17    18   ar
    13    18    19   ar
    14    19    20   ar
    15     4     5    1
    16     5     6    1
    17     6     7    1
    18     7    21    1
    19    21    22   ar
    20    22    23   ar
    21    23    24    1
    22    23    25   ar
    23    25    26    1
    24    25    27   ar
    25    27    28   ar
    26    28    29    1
    27     7     2    1
    28    28    21   ar
    29    20    10   ar
    30    19    13   ar
    31     1     8    1
    32     1     9    1
@<TRIPOS>MOLECULE
*****
 29 32 0 0 0
SMALL
GASTEIGER

@<TRIPOS>ATOM
      1 N         140.0250  142.4997  165.4120 N.3     1  UNL1       -0.3206
      2 C         140.7632  141.2061  165.2344 C.3     1  UNL1        0.0750
      3 C         141.0396  140.6834  163.8558 C.3     1  UNL1        0.1079
      4 N         141.7778  139.3898  163.6782 N.pl3   1  UNL1       -0.2905
      5 C         142.2395  138.6188  164.8792 C.3     1  UNL1        0.0926
      6 C         141.9632  139.1414  166.2577 C.3     1  UNL1        0.0273
      7 C         141.2250  140.4351  166.4354 C.3     1  UNL1        0.0422
      8 H         139.7891  142.8849  164.4975 H       1  UNL1        0.1189
      9 H         140.6146  143.1610  165.9176 H       1  UNL1        0.1189
     10 C         142.0542  138.8671  162.2996 C.ar    1  UNL1        0.1520
     11 C         143.3820  138.2438  161.9861 C.ar    1  UNL1        0.0392
     12 C         143.6583  137.7211  160.6076 C.ar    1  UNL1        0.0418
     13 C         142.6068  137.8218  159.5425 C.ar    1  UNL1        0.1672
     14 N         142.8833  137.2992  158.1639 N.ar    1  UNL1       -0.1887
     15 C         141.8318  137.3999  157.0989 C.ar    1  UNL1        0.2822
     16 O         142.1081  136.8773  155.7203 O.2     1  UNL1       -0.2651
     17 C         140.5039  138.0233  157.4125 C.ar    1  UNL1        0.0832
     18 C         140.2276  138.5459  158.7910 C.ar    1  UNL1        0.1071
     19 N         141.2791  138.4452  159.8560 N.ar    1  UNL1       -0.2094
     20 N         141.0027  138.9678  161.2346 N.ar    1  UNL1       -0.1487
     21 C         140.9486  140.9577  167.8139 C.ar    1  UNL1        0.0087
     22 C         141.8370  142.0094  168.4093 C.ar    1  UNL1        0.0300
     23 C         141.5607  142.5321  169.7880 C.ar    1  UNL1        0.1672
     24 F         142.4491  143.5838  170.3834 F       1  UNL1       -0.2018
     25 C         140.3959  142.0030  170.5711 C.ar    1  UNL1        0.1696
     26 F         140.1195  142.5256  171.9497 F       1  UNL1       -0.2017
     27 C         139.5075  140.9512  169.9756 C.ar    1  UNL1        0.0612
     28 C         139.7838  140.4286  168.5971 C.ar    1  UNL1        0.1386
     29 F         138.8954  139.3769  168.0017 F       1  UNL1       -0.2044
@<TRIPOS>BOND
     1     2     1    1
     2     2     3    1
     3     3     4    1
     4     4    10    1
     5    10    11   ar
     6    11    12   ar
     7    12    13   ar
     8    13    14   ar
     9    14    15   ar
    10    15    16    2
    11    15    17   ar
    12    17    18   ar
    13    18    19   ar
    14    19    20   ar
    15     4     5    1
    16     5     6    1
    17     6     7    1
    18     7    21    1
    19    21    22   ar
    20    22    23   ar
    21    23    24    1
    22    23    25   ar
    23    25    26    1
    24    25    27   ar
    25    27    28   ar
    26    28    29    1
    27     7     2    1
    28    28    21   ar
    29    20    10   ar
    30    19    13   ar
    31     1     8    1
    32     1     9    1
@<TRIPOS>MOLECULE
*****
 29 32 0 0 0
SMALL
GASTEIGER

@<TRIPOS>ATOM
      1 N         143.3979  144.9956  162.2248 N.3     1  UNL1       -0.3206
      2 C         142.3106  143.9959  162.4865 C.3     1  UNL1        0.0750
      3 C         142.0764  143.4898  163.8790 C.3     1  UNL1        0.1079
      4 N         140.9891  142.4902  164.1407 N.pl3   1  UNL1       -0.2905
      5 C         140.1361  141.9966  163.0099 C.3     1  UNL1        0.0926
      6 C         140.3703  142.5026  161.6174 C.3     1  UNL1        0.0273
      7 C         141.4576  143.5023  161.3557 C.3     1  UNL1        0.0422
      8 H         143.8734  145.2176  163.0994 H       1  UNL1        0.1189
      9 H         142.9914  145.8454  161.8336 H       1  UNL1        0.1189
     10 C         140.7549  141.9840  165.5332 C.ar    1  UNL1        0.1520
     11 C         139.8253  140.8299  165.7653 C.ar    1  UNL1        0.0392
     12 C         139.5912  140.3239  167.1577 C.ar    1  UNL1        0.0418
     13 C         140.2865  140.9719  168.3181 C.ar    1  UNL1        0.1672
     14 N         140.0523  140.4658  169.7107 N.ar    1  UNL1       -0.1887
     15 C         140.7476  141.1139  170.8710 C.ar    1  UNL1        0.2822
     16 O         140.5135  140.6078  172.2635 O.2     1  UNL1       -0.2651
     17 C         141.6773  142.2680  170.6389 C.ar    1  UNL1        0.0832
     18 C         141.9114  142.7741  169.2464 C.ar    1  UNL1        0.1071
     19 N         141.2161  142.1260  168.0861 N.ar    1  UNL1       -0.2094
     20 N         141.4503  142.6321  166.6936 N.ar    1  UNL1       -0.1487
     21 C         141.6918  144.0084  159.9632 C.ar    1  UNL1        0.0087
     22 C         142.6478  143.2924  159.0559 C.ar    1  UNL1        0.0300
     23 C         142.8820  143.7984  157.6634 C.ar    1  UNL1        0.1672
     24 F         143.8381  143.0824  156.7561 F       1  UNL1       -0.2018
     25 C         142.1602  145.0205  157.1782 C.ar    1  UNL1        0.1696
     26 F         142.3944  145.5266  155.7857 F       1  UNL1       -0.2017
     27 C         141.2041  145.7366  158.0856 C.ar    1  UNL1        0.0612
     28 C         140.9699  145.2305  159.4780 C.ar    1  UNL1        0.1386
     29 F         140.0138  145.9465  160.3853 F       1  UNL1       -0.2044
@<TRIPOS>BOND
     1     2     1    1
     2     2     3    1
     3     3     4    1
     4     4    10    1
     5    10    11   ar
     6    11    12   ar
     7    12    13   ar
     8    13    14   ar
     9    14    15   ar
    10    15    16    2
    11    15    17   ar
    12    17    18   ar
    13    18    19   ar
    14    19    20   ar
    15     4     5    1
    16     5     6    1
    17     6     7    1
    18     7    21    1
    19    21    22   ar
    20    22    23   ar
    21    23    24    1
    22    23    25   ar
    23    25    26    1
    24    25    27   ar
    25    27    28   ar
    26    28    29    1
    27     7     2    1
    28    28    21   ar
    29    20    10   ar
    30    19    13   ar
    31     1     8    1
    32     1     9    1
@<TRIPOS>MOLECULE
*****
 29 32 0 0 0
SMALL
GASTEIGER

@<TRIPOS>ATOM
      1 N         140.1641  142.2318  165.7706 N.3     1  UNL1       -0.3206
      2 C         141.4153  142.2554  164.9437 C.3     1  UNL1        0.0750
      3 C         141.3605  142.7033  163.5131 C.3     1  UNL1        0.1079
      4 N         142.6117  142.7270  162.6862 N.pl3   1  UNL1       -0.2905
      5 C         143.9177  142.3027  163.2897 C.3     1  UNL1        0.0926
      6 C         143.9725  141.8548  164.7202 C.3     1  UNL1        0.0273
      7 C         142.7213  141.8311  165.5472 C.3     1  UNL1        0.0422
      8 H         139.3767  142.5492  165.2052 H       1  UNL1        0.1189
      9 H         140.2762  142.8494  166.5746 H       1  UNL1        0.1189
     10 C         142.5569  143.1749  161.2556 C.ar    1  UNL1        0.1520
     11 C         143.5616  142.6583  160.2689 C.ar    1  UNL1        0.0392
     12 C         143.5067  143.1062  158.8384 C.ar    1  UNL1        0.0418
     13 C         142.4472  144.0708  158.3946 C.ar    1  UNL1        0.1672
     14 N         142.3924  144.5187  156.9641 N.ar    1  UNL1       -0.1887
     15 C         141.3328  145.4833  156.5203 C.ar    1  UNL1        0.2822
     16 O         141.2780  145.9312  155.0898 O.2     1  UNL1       -0.2651
     17 C         140.3281  146.0000  157.5071 C.ar    1  UNL1        0.0832
     18 C         140.3829  145.5520  158.9375 C.ar    1  UNL1        0.1071
     19 N         141.4425  144.5874  159.3813 N.ar    1  UNL1       -0.2094
     20 N         141.4973  144.1395  160.8118 N.ar    1  UNL1       -0.1487
     21 C         142.7762  141.3832  166.9777 C.ar    1  UNL1        0.0087
     22 C         143.1202  142.3650  168.0583 C.ar    1  UNL1        0.0300
     23 C         143.1751  141.9171  169.4888 C.ar    1  UNL1        0.1672
     24 F         143.5192  142.8988  170.5694 F       1  UNL1       -0.2018
     25 C         142.8859  140.4874  169.8387 C.ar    1  UNL1        0.1696
     26 F         142.9407  140.0395  171.2692 F       1  UNL1       -0.2017
     27 C         142.5418  139.5057  168.7580 C.ar    1  UNL1        0.0612
     28 C         142.4869  139.9536  167.3276 C.ar    1  UNL1        0.1386
     29 F         142.1428  138.9718  166.2470 F       1  UNL1       -0.2044
@<TRIPOS>BOND
     1     2     1    1
     2     2     3    1
     3     3     4    1
     4     4    10    1
     5    10    11   ar
     6    11    12   ar
     7    12    13   ar
     8    13    14   ar
     9    14    15   ar
    10    15    16    2
    11    15    17   ar
    12    17    18   ar
    13    18    19   ar
    14    19    20   ar
    15     4     5    1
    16     5     6    1
    17     6     7    1
    18     7    21    1
    19    21    22   ar
    20    22    23   ar
    21    23    24    1
    22    23    25   ar
    23    25    26    1
    24    25    27   ar
    25    27    28   ar
    26    28    29    1
    27     7     2    1
    28    28    21   ar
    29    20    10   ar
    30    19    13   ar
    31     1     8    1
    32     1     9    1
@<TRIPOS>MOLECULE
*****
 29 32 0 0 0
SMALL
GASTEIGER

@<TRIPOS>ATOM
      1 N         141.8631  137.2059  162.0264 N.3     1  UNL1       -0.3206
      2 C         141.5118  138.6437  162.2695 C.3     1  UNL1        0.0750
      3 C         141.3537  139.1503  163.6726 C.3     1  UNL1        0.1079
      4 N         141.0023  140.5882  163.9157 N.pl3   1  UNL1       -0.2905
      5 C         140.8090  141.5195  162.7558 C.3     1  UNL1        0.0926
      6 C         140.9671  141.0129  161.3528 C.3     1  UNL1        0.0273
      7 C         141.3184  139.5750  161.1096 C.3     1  UNL1        0.0422
      8 H         141.9558  136.7228  162.9199 H       1  UNL1        0.1189
      9 H         142.7458  137.1529  161.5180 H       1  UNL1        0.1189
     10 C         140.8443  141.0948  165.3187 C.ar    1  UNL1        0.1520
     11 C         140.4374  142.5181  165.5608 C.ar    1  UNL1        0.0392
     12 C         140.2793  143.0246  166.9638 C.ar    1  UNL1        0.0418
     13 C         140.5282  142.1078  168.1247 C.ar    1  UNL1        0.1672
     14 N         140.3701  142.6144  169.5277 N.ar    1  UNL1       -0.1887
     15 C         140.6190  141.6977  170.6886 C.ar    1  UNL1        0.2822
     16 O         140.4609  142.2042  172.0916 O.2     1  UNL1       -0.2651
     17 C         141.0259  140.2743  170.4464 C.ar    1  UNL1        0.0832
     18 C         141.1839  139.7678  169.0434 C.ar    1  UNL1        0.1071
     19 N         140.9351  140.6846  167.8826 N.ar    1  UNL1       -0.2094
     20 N         141.0931  140.1780  166.4796 N.ar    1  UNL1       -0.1487
     21 C         141.4765  139.0685  159.7067 C.ar    1  UNL1        0.0087
     22 C         140.2936  138.5087  158.9737 C.ar    1  UNL1        0.0300
     23 C         140.4516  138.0021  157.5707 C.ar    1  UNL1        0.1672
     24 F         139.2687  137.4422  156.8378 F       1  UNL1       -0.2018
     25 C         141.7925  138.0554  156.9006 C.ar    1  UNL1        0.1696
     26 F         141.9506  137.5489  155.4976 F       1  UNL1       -0.2017
     27 C         142.9755  138.6153  157.6336 C.ar    1  UNL1        0.0612
     28 C         142.8174  139.1218  159.0366 C.ar    1  UNL1        0.1386
     29 F         144.0004  139.6817  159.7695 F       1  UNL1       -0.2044
@<TRIPOS>BOND
     1     2     1    1
     2     2     3    1
     3     3     4    1
     4     4    10    1
     5    10    11   ar
     6    11    12   ar
     7    12    13   ar
     8    13    14   ar
     9    14    15   ar
    10    15    16    2
    11    15    17   ar
    12    17    18   ar
    13    18    19   ar
    14    19    20   ar
    15     4     5    1
    16     5     6    1
    17     6     7    1
    18     7    21    1
    19    21    22   ar
    20    22    23   ar
    21    23    24    1
    22    23    25   ar
    23    25    26    1
    24    25    27   ar
    25    27    28   ar
    26    28    29    1
    27     7     2    1
    28    28    21   ar
    29    20    10   ar
    30    19    13   ar
    31     1     8    1
    32     1     9    1
@<TRIPOS>MOLECULE
*****
 29 32 0 0 0
SMALL
GASTEIGER

@<TRIPOS>ATOM
      1 N         142.3417  142.2743  165.8317 N.3     1  UNL1       -0.3206
      2 C         142.2121  140.9374  165.1641 C.3     1  UNL1        0.0750
      3 C         142.5120  140.7974  163.7010 C.3     1  UNL1        0.1079
      4 N         142.3823  139.4604  163.0334 N.pl3   1  UNL1       -0.2905
      5 C         141.9527  138.2634  163.8289 C.3     1  UNL1        0.0926
      6 C         141.6528  138.4034  165.2919 C.3     1  UNL1        0.0273
      7 C         141.7825  139.7404  165.9595 C.3     1  UNL1        0.0422
      8 H         142.6411  142.9686  165.1471 H       1  UNL1        0.1189
      9 H         143.0322  142.2151  166.5802 H       1  UNL1        0.1189
     10 C         142.6822  139.3204  161.5704 C.ar    1  UNL1        0.1520
     11 C         142.3580  138.0412  160.8574 C.ar    1  UNL1        0.0392
     12 C         142.6579  137.9013  159.3944 C.ar    1  UNL1        0.0418
     13 C         143.2820  139.0406  158.6444 C.ar    1  UNL1        0.1672
     14 N         143.5819  138.9006  157.1813 N.ar    1  UNL1       -0.1887
     15 C         144.2060  140.0398  156.4313 C.ar    1  UNL1        0.2822
     16 O         144.5059  139.8999  154.9683 O.2     1  UNL1       -0.2651
     17 C         144.5302  141.3191  157.1443 C.ar    1  UNL1        0.0832
     18 C         144.2303  141.4591  158.6073 C.ar    1  UNL1        0.1071
     19 N         143.6062  140.3198  159.3573 N.ar    1  UNL1       -0.2094
     20 N         143.3063  140.4597  160.8203 N.ar    1  UNL1       -0.1487
     21 C         141.4826  139.8803  167.4225 C.ar    1  UNL1        0.0087
     22 C         142.5888  139.7661  168.4291 C.ar    1  UNL1        0.0300
     23 C         142.2889  139.9060  169.8922 C.ar    1  UNL1        0.1672
     24 F         143.3951  139.7918  170.8988 F       1  UNL1       -0.2018
     25 C         140.8828  140.1602  170.3486 C.ar    1  UNL1        0.1696
     26 F         140.5829  140.3001  171.8116 F       1  UNL1       -0.2017
     27 C         139.7766  140.2745  169.3420 C.ar    1  UNL1        0.0612
     28 C         140.0765  140.1345  167.8790 C.ar    1  UNL1        0.1386
     29 F         138.9703  140.2488  166.8724 F       1  UNL1       -0.2044
@<TRIPOS>BOND
     1     2     1    1
     2     2     3    1
     3     3     4    1
     4     4    10    1
     5    10    11   ar
     6    11    12   ar
     7    12    13   ar
     8    13    14   ar
     9    14    15   ar
    10    15    16    2
    11    15    17   ar
    12    17    18   ar
    13    18    19   ar
    14    19    20   ar
    15     4     5    1
    16     5     6    1
    17     6     7    1
    18     7    21    1
    19    21    22   ar
    20    22    23   ar
    21    23    24    1
    22    23    25   ar
    23    25    26    1
    24    25    27   ar
    25    27    28   ar
    26    28    29    1
    27     7     2    1
    28    28    21   ar
    29    20    10   ar
    30    19    13   ar
    31     1     8    1
    32     1     9    1
@<TRIPOS>MOLECULE
*****
 29 32 0 0 0
SMALL
GASTEIGER

@<TRIPOS>ATOM
      1 N         136.6957  139.3995  160.7321 N.3     1  UNL1       -0.3206
      2 C         137.8433  140.0398  161.4551 C.3     1  UNL1        0.0750
      3 C         137.9527  139.9170  162.9462 C.3     1  UNL1        0.1079
      4 N         139.1004  140.5573  163.6692 N.pl3   1  UNL1       -0.2905
      5 C         140.1386  141.3204  162.9014 C.3     1  UNL1        0.0926
      6 C         140.0293  141.4433  161.4104 C.3     1  UNL1        0.0273
      7 C         138.8816  140.8029  160.6873 C.3     1  UNL1        0.0422
      8 H         136.0917  138.9264  161.4043 H       1  UNL1        0.1189
      9 H         137.0534  138.7208  160.0599 H       1  UNL1        0.1189
     10 C         139.2098  140.4344  165.1602 C.ar    1  UNL1        0.1520
     11 C         138.4396  139.3698  165.8836 C.ar    1  UNL1        0.0392
     12 C         138.5490  139.2470  167.3745 C.ar    1  UNL1        0.0418
     13 C         139.4287  140.1889  168.1421 C.ar    1  UNL1        0.1672
     14 N         139.5381  140.0661  169.6331 N.ar    1  UNL1       -0.1887
     15 C         140.4177  141.0079  170.4006 C.ar    1  UNL1        0.2822
     16 O         140.5272  140.8852  171.8916 O.2     1  UNL1       -0.2651
     17 C         141.1880  142.0726  169.6772 C.ar    1  UNL1        0.0832
     18 C         141.0785  142.1954  168.1863 C.ar    1  UNL1        0.1071
     19 N         140.1989  141.2535  167.4187 N.ar    1  UNL1       -0.2094
     20 N         140.0894  141.3763  165.9278 N.ar    1  UNL1       -0.1487
     21 C         138.7722  140.9258  159.1964 C.ar    1  UNL1        0.0087
     22 C         138.3187  142.2166  158.5815 C.ar    1  UNL1        0.0300
     23 C         138.2093  142.3395  157.0905 C.ar    1  UNL1        0.1672
     24 F         137.7558  143.6302  156.4756 F       1  UNL1       -0.2018
     25 C         138.5534  141.1715  156.2144 C.ar    1  UNL1        0.1696
     26 F         138.4441  141.2943  154.7235 F       1  UNL1       -0.2017
     27 C         139.0070  139.8807  156.8294 C.ar    1  UNL1        0.0612
     28 C         139.1164  139.7578  158.3203 C.ar    1  UNL1        0.1386
     29 F         139.5699  138.4670  158.9352 F       1  UNL1       -0.2044
@<TRIPOS>BOND
     1     2     1    1
     2     2     3    1
     3     3     4    1
     4     4    10    1
     5    10    11   ar
     6    11    12   ar
     7    12    13   ar
     8    13    14   ar
     9    14    15   ar
    10    15    16    2
    11    15    17   ar
    12    17    18   ar
    13    18    19   ar
    14    19    20   ar
    15     4     5    1
    16     5     6    1
    17     6     7    1
    18     7    21    1
    19    21    22   ar
    20    22    23   ar
    21    23    24    1
    22    23    25   ar
    23    25    26    1
    24    25    27   ar
    25    27    28   ar
    26    28    29    1
    27     7     2    1
    28    28    21   ar
    29    20    10   ar
    30    19    13   ar
    31     1     8    1
    32     1     9    1
