@<TRIPOS>MOLECULE
*****
 39 42 0 0 0
SMALL
GASTEIGER

@<TRIPOS>ATOM
      1 C         139.1339  141.1125  160.6484 C.3     1  UNL1        0.0702
      2 C         139.4631  140.2428  159.4715 C.3     1  UNL1        0.0100
      3 C         139.6258  141.1284  158.2719 C.3     1  UNL1        0.0164
      4 C         139.3972  142.5454  158.7074 C.3     1  UNL1        0.0580
      5 C         139.0931  142.5356  160.1762 C.3     1  UNL1        0.0246
      6 N         139.4613  143.7592  157.8284 N.3     1  UNL1       -0.2739
      7 C         140.2298  144.9680  158.2737 C.3     1  UNL1        0.0724
      8 C         140.2939  146.1818  157.3947 C.3     1  UNL1        0.0218
      9 C         139.5895  146.1868  156.0704 C.3     1  UNL1        0.0282
     10 C         138.8210  144.9780  155.6251 C.3     1  UNL1        0.0218
     11 C         138.7569  143.7642  156.5041 C.3     1  UNL1        0.0724
     12 C         139.6536  147.4006  155.1914 C.ar    1  UNL1        0.0159
     13 C         140.4220  147.3545  153.9040 C.ar    1  UNL1        0.0979
     14 N         140.4861  148.5683  153.0250 N.ar    1  UNL1       -0.2228
     15 C         139.7819  149.8282  153.4335 C.ar    1  UNL1        0.1989
     16 N         139.0135  149.8742  154.7210 N.ar    1  UNL1       -0.2228
     17 C         138.9494  148.6605  155.6000 C.ar    1  UNL1        0.0979
     18 C         138.7985  141.7108  161.9824 C.2     1  UNL1        0.2218
     19 O         137.3707  142.0065  162.3342 O.2     1  UNL1       -0.2751
     20 N         139.8911  142.0134  162.9647 N.am    1  UNL1       -0.3004
     21 H         140.8283  141.8193  162.7339 H       1  UNL1        0.1497
     22 C         139.5557  142.6117  164.2987 C.3     1  UNL1        0.1163
     23 C         139.5169  141.7438  165.5215 C.ar    1  UNL1       -0.0027
     24 C         140.1712  142.2054  166.7899 C.ar    1  UNL1        0.0012
     25 C         140.1323  141.3375  168.0127 C.ar    1  UNL1        0.0711
     26 C         139.4391  140.0081  167.9671 C.ar    1  UNL1        0.0077
     27 C         138.7848  139.5465  166.6987 C.ar    1  UNL1        0.0711
     28 C         138.8237  140.4144  165.4760 C.ar    1  UNL1        0.0012
     29 C         140.7866  141.7991  169.2812 C.3     1  UNL1        0.4186
     30 F         141.4409  142.2606  170.5496 F       1  UNL1       -0.1659
     31 F         141.4949  140.4818  169.3951 F       1  UNL1       -0.1659
     32 F         140.0782  143.1164  169.1673 F       1  UNL1       -0.1659
     33 C         138.0917  138.2171  166.6531 C.3     1  UNL1        0.4186
     34 F         137.3985  136.8876  166.6075 F       1  UNL1       -0.1659
     35 F         138.9078  137.8326  165.4548 F       1  UNL1       -0.1659
     36 F         137.2755  138.6015  167.8515 F       1  UNL1       -0.1659
     37 C         137.7973  139.1238  161.6526 C.3     1  UNL1        0.0005
     38 C         139.1045  139.8144  161.3996 C.3     1  UNL1        0.0082
     39 C         140.3824  139.2070  161.8977 C.3     1  UNL1        0.0005
@<TRIPOS>BOND
     1    37    38    1
     2    38    39    1
     3     1    38    1
     4     1    18    1
     5    18    19    2
     6    18    20   am
     7    20    22    1
     8    22    23    1
     9    23    24   ar
    10    24    25   ar
    11    25    29    1
    12    29    30    1
    13    29    31    1
    14    29    32    1
    15    25    26   ar
    16    26    27   ar
    17    27    33    1
    18    33    34    1
    19    33    35    1
    20    33    36    1
    21    27    28   ar
    22     1     2    1
    23     2     3    1
    24     3     4    1
    25     4     6    1
    26     6     7    1
    27     7     8    1
    28     8     9    1
    29     9    12    1
    30    12    13   ar
    31    13    14   ar
    32    14    15   ar
    33    15    16   ar
    34    16    17   ar
    35     9    10    1
    36    10    11    1
    37     4     5    1
    38     5     1    1
    39    28    23   ar
    40    11     6    1
    41    17    12   ar
    42    20    21    1
@<TRIPOS>MOLECULE
*****
 39 42 0 0 0
SMALL
GASTEIGER

@<TRIPOS>ATOM
      1 C         143.5256  142.7919  163.0347 C.3     1  UNL1        0.0702
      2 C         144.6048  143.4463  162.2242 C.3     1  UNL1        0.0100
      3 C         144.7323  142.6968  160.9311 C.3     1  UNL1        0.0164
      4 C         143.7319  141.5793  160.9425 C.3     1  UNL1        0.0580
      5 C         142.9861  141.6380  162.2426 C.3     1  UNL1        0.0246
      6 N         143.5152  140.5786  159.8462 N.3     1  UNL1       -0.2739
      7 C         142.9423  139.2295  160.1646 C.3     1  UNL1        0.0724
      8 C         142.7257  138.2288  159.0684 C.3     1  UNL1        0.0218
      9 C         143.0820  138.5774  157.6536 C.3     1  UNL1        0.0282
     10 C         143.6550  139.9266  157.3352 C.3     1  UNL1        0.0218
     11 C         143.8716  140.9273  158.4314 C.3     1  UNL1        0.0724
     12 C         142.8654  137.5767  156.5573 C.ar    1  UNL1        0.0159
     13 C         142.8450  136.1106  156.8734 C.ar    1  UNL1        0.0979
     14 N         142.6283  135.1100  155.7772 N.ar    1  UNL1       -0.2228
     15 C         142.4322  135.5755  154.3648 C.ar    1  UNL1        0.1989
     16 N         142.4526  137.0417  154.0487 N.ar    1  UNL1       -0.2228
     17 C         142.6692  138.0424  155.1449 C.ar    1  UNL1        0.0979
     18 C         142.5150  142.3598  164.0555 C.2     1  UNL1        0.2218
     19 O         141.2458  143.1397  164.2311 O.2     1  UNL1       -0.2751
     20 N         142.7736  141.1479  164.9007 N.am    1  UNL1       -0.3004
     21 H         143.6066  140.6360  164.7854 H       1  UNL1        0.1497
     22 C         141.7629  140.7158  165.9214 C.3     1  UNL1        0.1163
     23 C         140.6368  139.8079  165.5243 C.ar    1  UNL1       -0.0027
     24 C         139.6431  139.3522  166.5513 C.ar    1  UNL1        0.0012
     25 C         138.5170  138.4444  166.1542 C.ar    1  UNL1        0.0711
     26 C         138.3846  137.9923  164.7301 C.ar    1  UNL1        0.0077
     27 C         139.3783  138.4480  163.7031 C.ar    1  UNL1        0.0711
     28 C         140.5044  139.3558  164.1002 C.ar    1  UNL1        0.0012
     29 C         137.5232  137.9886  167.1813 C.3     1  UNL1        0.4186
     30 F         136.5294  137.5328  168.2082 F       1  UNL1       -0.1659
     31 F         137.3688  136.6860  166.4537 F       1  UNL1       -0.1659
     32 F         137.6776  139.2912  167.9088 F       1  UNL1       -0.1659
     33 C         139.2460  137.9959  162.2790 C.3     1  UNL1        0.4186
     34 F         139.1136  137.5438  160.8549 F       1  UNL1       -0.1659
     35 F         140.6297  137.4194  162.3334 F       1  UNL1       -0.1659
     36 F         137.8623  138.5725  162.2246 F       1  UNL1       -0.1659
     37 C         143.5075  145.2872  163.7577 C.3     1  UNL1        0.0005
     38 C         143.8538  143.8554  164.0403 C.3     1  UNL1        0.0082
     39 C         144.5284  143.4871  165.3284 C.3     1  UNL1        0.0005
@<TRIPOS>BOND
     1    37    38    1
     2    38    39    1
     3     1    38    1
     4     1    18    1
     5    18    19    2
     6    18    20   am
     7    20    22    1
     8    22    23    1
     9    23    24   ar
    10    24    25   ar
    11    25    29    1
    12    29    30    1
    13    29    31    1
    14    29    32    1
    15    25    26   ar
    16    26    27   ar
    17    27    33    1
    18    33    34    1
    19    33    35    1
    20    33    36    1
    21    27    28   ar
    22     1     2    1
    23     2     3    1
    24     3     4    1
    25     4     6    1
    26     6     7    1
    27     7     8    1
    28     8     9    1
    29     9    12    1
    30    12    13   ar
    31    13    14   ar
    32    14    15   ar
    33    15    16   ar
    34    16    17   ar
    35     9    10    1
    36    10    11    1
    37     4     5    1
    38     5     1    1
    39    28    23   ar
    40    11     6    1
    41    17    12   ar
    42    20    21    1
@<TRIPOS>MOLECULE
*****
 39 42 0 0 0
SMALL
GASTEIGER

@<TRIPOS>ATOM
      1 C         139.1586  140.9600  160.6623 C.3     1  UNL1        0.0702
      2 C         139.5510  140.1176  159.4848 C.3     1  UNL1        0.0100
      3 C         139.7207  141.0245  158.3022 C.3     1  UNL1        0.0164
      4 C         139.4332  142.4273  158.7486 C.3     1  UNL1        0.0580
      5 C         139.0858  142.3874  160.2073 C.3     1  UNL1        0.0246
      6 N         139.4841  143.6545  157.8876 N.3     1  UNL1       -0.2739
      7 C         138.7858  143.6689  156.5602 C.3     1  UNL1        0.0724
      8 C         138.8367  144.8961  155.6991 C.3     1  UNL1        0.0218
      9 C         139.5859  146.1090  156.1656 C.3     1  UNL1        0.0282
     10 C         140.2842  146.0946  157.4931 C.3     1  UNL1        0.0218
     11 C         140.2333  144.8674  158.3541 C.3     1  UNL1        0.0724
     12 C         139.6368  147.3362  155.3046 C.ar    1  UNL1        0.0159
     13 C         140.4081  147.3184  154.0182 C.ar    1  UNL1        0.0979
     14 N         140.4590  148.5456  153.1572 N.ar    1  UNL1       -0.2228
     15 C         139.7386  149.7906  153.5826 C.ar    1  UNL1        0.1989
     16 N         138.9673  149.8085  154.8691 N.ar    1  UNL1       -0.2228
     17 C         138.9164  148.5812  155.7301 C.ar    1  UNL1        0.0979
     18 C         138.7642  141.5288  161.9930 C.2     1  UNL1        0.2218
     19 O         137.3159  141.6075  162.3755 O.2     1  UNL1       -0.2751
     20 N         139.8181  142.0190  162.9413 N.am    1  UNL1       -0.3004
     21 H         140.7686  141.9673  162.6902 H       1  UNL1        0.1497
     22 C         139.4237  142.5878  164.2720 C.3     1  UNL1        0.1163
     23 C         139.4213  141.7131  165.4906 C.ar    1  UNL1       -0.0027
     24 C         138.7612  140.3669  165.4463 C.ar    1  UNL1        0.0012
     25 C         138.7589  139.4923  166.6649 C.ar    1  UNL1        0.0711
     26 C         139.4167  139.9638  167.9278 C.ar    1  UNL1        0.0077
     27 C         140.0768  141.3100  167.9721 C.ar    1  UNL1        0.0711
     28 C         140.0791  142.1846  166.7535 C.ar    1  UNL1        0.0012
     29 C         138.0988  138.1460  166.6206 C.3     1  UNL1        0.4186
     30 F         137.4388  136.7998  166.5763 F       1  UNL1       -0.1659
     31 F         138.9895  137.7468  165.4816 F       1  UNL1       -0.1659
     32 F         137.2082  138.5451  167.7596 F       1  UNL1       -0.1659
     33 C         140.7345  141.7816  169.2350 C.3     1  UNL1        0.4186
     34 F         141.3923  142.2532  170.4980 F       1  UNL1       -0.1659
     35 F         141.5955  142.7160  168.4377 F       1  UNL1       -0.1659
     36 F         139.8736  140.8472  170.0324 F       1  UNL1       -0.1659
     37 C         140.3852  139.1780  162.1010 C.3     1  UNL1        0.0005
     38 C         139.1490  139.6514  161.3955 C.3     1  UNL1        0.0082
     39 C         137.9033  138.8163  161.4233 C.3     1  UNL1        0.0005
@<TRIPOS>BOND
     1    37    38    1
     2    38    39    1
     3     1    38    1
     4     1    18    1
     5    18    19    2
     6    18    20   am
     7    20    22    1
     8    22    23    1
     9    23    24   ar
    10    24    25   ar
    11    25    29    1
    12    29    30    1
    13    29    31    1
    14    29    32    1
    15    25    26   ar
    16    26    27   ar
    17    27    33    1
    18    33    34    1
    19    33    35    1
    20    33    36    1
    21    27    28   ar
    22     1     2    1
    23     2     3    1
    24     3     4    1
    25     4     6    1
    26     6     7    1
    27     7     8    1
    28     8     9    1
    29     9    12    1
    30    12    13   ar
    31    13    14   ar
    32    14    15   ar
    33    15    16   ar
    34    16    17   ar
    35     9    10    1
    36    10    11    1
    37     4     5    1
    38     5     1    1
    39    28    23   ar
    40    11     6    1
    41    17    12   ar
    42    20    21    1
@<TRIPOS>MOLECULE
*****
 39 42 0 0 0
SMALL
GASTEIGER

@<TRIPOS>ATOM
      1 C         143.6886  142.1103  162.7785 C.3     1  UNL1        0.0702
      2 C         144.5833  141.4563  161.7676 C.3     1  UNL1        0.0100
      3 C         144.2612  142.0337  160.4212 C.3     1  UNL1        0.0164
      4 C         143.1675  143.0446  160.5999 C.3     1  UNL1        0.0580
      5 C         142.8137  143.0919  162.0569 C.3     1  UNL1        0.0246
      6 N         142.5382  143.8642  159.5127 N.3     1  UNL1       -0.2739
      7 C         141.4181  144.8075  159.8374 C.3     1  UNL1        0.0724
      8 C         140.7887  145.6271  158.7501 C.3     1  UNL1        0.0218
      9 C         141.2796  145.5035  157.3381 C.3     1  UNL1        0.0282
     10 C         142.3998  144.5602  157.0134 C.3     1  UNL1        0.0218
     11 C         143.0291  143.7405  158.1007 C.3     1  UNL1        0.0724
     12 C         140.6502  146.3231  156.2509 C.ar    1  UNL1        0.0159
     13 C         139.4540  147.1766  156.5520 C.ar    1  UNL1        0.0979
     14 N         138.8247  147.9962  155.4647 N.ar    1  UNL1       -0.2228
     15 C         139.3916  147.9624  154.0764 C.ar    1  UNL1        0.1989
     16 N         140.5879  147.1089  153.7753 N.ar    1  UNL1       -0.2228
     17 C         141.2172  146.2893  154.8625 C.ar    1  UNL1        0.0979
     18 C         142.9444  142.5796  163.9933 C.2     1  UNL1        0.2218
     19 O         143.7002  143.0467  165.2019 O.2     1  UNL1       -0.2751
     20 N         141.4444  142.5818  163.9996 N.am    1  UNL1       -0.3004
     21 H         140.9484  142.2752  163.2064 H       1  UNL1        0.1497
     22 C         140.7002  143.0511  165.2144 C.3     1  UNL1        0.1163
     23 C         140.2825  142.0656  166.2654 C.ar    1  UNL1       -0.0027
     24 C         140.5243  142.3672  167.7147 C.ar    1  UNL1        0.0012
     25 C         140.1067  141.3817  168.7656 C.ar    1  UNL1        0.0711
     26 C         139.4473  140.0947  168.3671 C.ar    1  UNL1        0.0077
     27 C         139.2055  139.7931  166.9178 C.ar    1  UNL1        0.0711
     28 C         139.6232  140.7786  165.8669 C.ar    1  UNL1        0.0012
     29 C         140.3484  141.6832  170.2150 C.3     1  UNL1        0.4186
     30 F         140.5901  141.9848  171.6643 F       1  UNL1       -0.1659
     31 F         138.8762  141.5784  170.4823 F       1  UNL1       -0.1659
     32 F         141.8206  141.7881  169.9477 F       1  UNL1       -0.1659
     33 C         138.5462  138.5061  166.5194 C.3     1  UNL1        0.4186
     34 F         137.8868  137.2190  166.1209 F       1  UNL1       -0.1659
     35 F         139.6617  138.2333  165.5544 F       1  UNL1       -0.1659
     36 F         137.4306  138.7789  167.4843 F       1  UNL1       -0.1659
     37 C         143.6581  140.1575  164.4919 C.3     1  UNL1        0.0005
     38 C         144.4080  141.2268  163.7541 C.3     1  UNL1        0.0082
     39 C         145.8774  141.4125  163.9920 C.3     1  UNL1        0.0005
@<TRIPOS>BOND
     1    37    38    1
     2    38    39    1
     3     1    38    1
     4     1    18    1
     5    18    19    2
     6    18    20   am
     7    20    22    1
     8    22    23    1
     9    23    24   ar
    10    24    25   ar
    11    25    29    1
    12    29    30    1
    13    29    31    1
    14    29    32    1
    15    25    26   ar
    16    26    27   ar
    17    27    33    1
    18    33    34    1
    19    33    35    1
    20    33    36    1
    21    27    28   ar
    22     1     2    1
    23     2     3    1
    24     3     4    1
    25     4     6    1
    26     6     7    1
    27     7     8    1
    28     8     9    1
    29     9    12    1
    30    12    13   ar
    31    13    14   ar
    32    14    15   ar
    33    15    16   ar
    34    16    17   ar
    35     9    10    1
    36    10    11    1
    37     4     5    1
    38     5     1    1
    39    28    23   ar
    40    11     6    1
    41    17    12   ar
    42    20    21    1
@<TRIPOS>MOLECULE
*****
 39 42 0 0 0
SMALL
GASTEIGER

@<TRIPOS>ATOM
      1 C         139.7878  139.8865  157.9216 C.3     1  UNL1        0.0702
      2 C         140.5759  140.5268  156.8175 C.3     1  UNL1        0.0100
      3 C         141.3638  139.4530  156.1276 C.3     1  UNL1        0.0164
      4 C         141.0628  138.1491  156.8051 C.3     1  UNL1        0.0580
      5 C         140.0887  138.4170  157.9139 C.3     1  UNL1        0.0246
      6 N         141.6352  136.8121  156.4383 N.3     1  UNL1       -0.2739
      7 C         140.9518  135.9600  155.4103 C.3     1  UNL1        0.0724
      8 C         141.5243  134.6230  155.0435 C.3     1  UNL1        0.0218
      9 C         142.7802  134.1379  155.7048 C.3     1  UNL1        0.0282
     10 C         143.4637  134.9900  156.7329 C.3     1  UNL1        0.0218
     11 C         142.8912  136.3270  157.0997 C.3     1  UNL1        0.0724
     12 C         143.3527  132.8008  155.3380 C.ar    1  UNL1        0.0159
     13 C         142.8672  132.0883  154.1106 C.ar    1  UNL1        0.0979
     14 N         143.4397  130.7513  153.7438 N.ar    1  UNL1       -0.2228
     15 C         144.4976  130.1267  154.6044 C.ar    1  UNL1        0.1989
     16 N         144.9832  130.8393  155.8319 N.ar    1  UNL1       -0.2228
     17 C         144.4107  132.1764  156.1987 C.ar    1  UNL1        0.0979
     18 C         138.8979  139.5382  159.0778 C.2     1  UNL1        0.2218
     19 O         137.4393  139.8851  159.0327 O.2     1  UNL1       -0.2751
     20 N         139.4667  138.8429  160.2791 N.am    1  UNL1       -0.3004
     21 H         140.4240  138.6152  160.3087 H       1  UNL1        0.1497
     22 C         138.5768  138.4946  161.4353 C.3     1  UNL1        0.1163
     23 C         138.4081  139.4614  162.5697 C.ar    1  UNL1       -0.0027
     24 C         138.1126  140.9047  162.2875 C.ar    1  UNL1        0.0012
     25 C         137.9439  141.8714  163.4219 C.ar    1  UNL1        0.0711
     26 C         138.0706  141.3948  164.8386 C.ar    1  UNL1        0.0077
     27 C         138.3660  139.9516  165.1208 C.ar    1  UNL1        0.0711
     28 C         138.5348  138.9849  163.9864 C.ar    1  UNL1        0.0012
     29 C         137.6485  143.3147  163.1397 C.3     1  UNL1        0.4186
     30 F         137.3530  144.7580  162.8575 F       1  UNL1       -0.1659
     31 F         137.6321  143.0236  161.6684 F       1  UNL1       -0.1659
     32 F         137.6649  143.6058  164.6111 F       1  UNL1       -0.1659
     33 C         138.4927  139.4751  166.5374 C.3     1  UNL1        0.4186
     34 F         138.6194  138.9985  167.9541 F       1  UNL1       -0.1659
     35 F         139.2476  140.7226  166.8896 F       1  UNL1       -0.1659
     36 F         137.7379  138.2276  166.1853 F       1  UNL1       -0.1659
     37 C         138.2657  141.8886  157.2699 C.3     1  UNL1        0.0005
     38 C         139.3008  141.2832  158.1710 C.3     1  UNL1        0.0082
     39 C         139.8490  142.0744  159.3215 C.3     1  UNL1        0.0005
@<TRIPOS>BOND
     1    37    38    1
     2    38    39    1
     3     1    38    1
     4     1    18    1
     5    18    19    2
     6    18    20   am
     7    20    22    1
     8    22    23    1
     9    23    24   ar
    10    24    25   ar
    11    25    29    1
    12    29    30    1
    13    29    31    1
    14    29    32    1
    15    25    26   ar
    16    26    27   ar
    17    27    33    1
    18    33    34    1
    19    33    35    1
    20    33    36    1
    21    27    28   ar
    22     1     2    1
    23     2     3    1
    24     3     4    1
    25     4     6    1
    26     6     7    1
    27     7     8    1
    28     8     9    1
    29     9    12    1
    30    12    13   ar
    31    13    14   ar
    32    14    15   ar
    33    15    16   ar
    34    16    17   ar
    35     9    10    1
    36    10    11    1
    37     4     5    1
    38     5     1    1
    39    28    23   ar
    40    11     6    1
    41    17    12   ar
    42    20    21    1
@<TRIPOS>MOLECULE
*****
 39 42 0 0 0
SMALL
GASTEIGER

@<TRIPOS>ATOM
      1 C         143.4820  142.8239  163.1758 C.3     1  UNL1        0.0702
      2 C         144.6070  143.4403  162.3983 C.3     1  UNL1        0.0100
      3 C         144.7531  142.6807  161.1132 C.3     1  UNL1        0.0164
      4 C         143.7185  141.5948  161.0964 C.3     1  UNL1        0.0580
      5 C         142.9329  141.6833  162.3712 C.3     1  UNL1        0.0246
      6 N         143.5066  140.5957  159.9977 N.3     1  UNL1       -0.2739
      7 C         143.6939  141.0038  158.5665 C.3     1  UNL1        0.0724
      8 C         143.4820  140.0047  157.4679 C.3     1  UNL1        0.0218
      9 C         143.0828  138.5976  157.8004 C.3     1  UNL1        0.0282
     10 C         142.8955  138.1895  159.2317 C.3     1  UNL1        0.0218
     11 C         143.1074  139.1886  160.3304 C.3     1  UNL1        0.0724
     12 C         142.8710  137.5986  156.7018 C.ar    1  UNL1        0.0159
     13 C         142.7472  138.0618  155.2805 C.ar    1  UNL1        0.0979
     14 N         142.5353  137.0627  154.1818 N.ar    1  UNL1       -0.2228
     15 C         142.4472  135.6005  154.5045 C.ar    1  UNL1        0.1989
     16 N         142.5710  135.1373  155.9259 N.ar    1  UNL1       -0.2228
     17 C         142.7829  136.1363  157.0245 C.ar    1  UNL1        0.0979
     18 C         142.4257  142.4287  164.1646 C.2     1  UNL1        0.2218
     19 O         141.1045  143.1388  164.1749 O.2     1  UNL1       -0.2751
     20 N         142.6906  141.3232  165.1434 N.am    1  UNL1       -0.3004
     21 H         143.5577  140.8571  165.1367 H       1  UNL1        0.1497
     22 C         141.6343  140.9279  166.1323 C.3     1  UNL1        0.1163
     23 C         140.5511  139.9711  165.7305 C.ar    1  UNL1       -0.0027
     24 C         140.4690  139.4828  164.3147 C.ar    1  UNL1        0.0012
     25 C         139.3859  138.5260  163.9130 C.ar    1  UNL1        0.0711
     26 C         138.3849  138.0576  164.9272 C.ar    1  UNL1        0.0077
     27 C         138.4670  138.5459  166.3430 C.ar    1  UNL1        0.0711
     28 C         139.5501  139.5027  166.7447 C.ar    1  UNL1        0.0012
     29 C         139.3037  138.0376  162.4970 C.3     1  UNL1        0.4186
     30 F         139.2216  137.5492  161.0812 F       1  UNL1       -0.1659
     31 F         140.5819  137.2758  162.6857 F       1  UNL1       -0.1659
     32 F         138.0255  138.7995  162.3084 F       1  UNL1       -0.1659
     33 C         137.4660  138.0775  167.3572 C.3     1  UNL1        0.4186
     34 F         136.4650  137.6091  168.3714 F       1  UNL1       -0.1659
     35 F         137.2291  136.8357  166.5499 F       1  UNL1       -0.1659
     36 F         137.7028  139.3193  168.1646 F       1  UNL1       -0.1659
     37 C         144.6261  143.5353  165.3972 C.3     1  UNL1        0.0005
     38 C         143.8103  143.8819  164.1871 C.3     1  UNL1        0.0082
     39 C         143.3228  145.2865  163.9884 C.3     1  UNL1        0.0005
@<TRIPOS>BOND
     1    37    38    1
     2    38    39    1
     3     1    38    1
     4     1    18    1
     5    18    19    2
     6    18    20   am
     7    20    22    1
     8    22    23    1
     9    23    24   ar
    10    24    25   ar
    11    25    29    1
    12    29    30    1
    13    29    31    1
    14    29    32    1
    15    25    26   ar
    16    26    27   ar
    17    27    33    1
    18    33    34    1
    19    33    35    1
    20    33    36    1
    21    27    28   ar
    22     1     2    1
    23     2     3    1
    24     3     4    1
    25     4     6    1
    26     6     7    1
    27     7     8    1
    28     8     9    1
    29     9    12    1
    30    12    13   ar
    31    13    14   ar
    32    14    15   ar
    33    15    16   ar
    34    16    17   ar
    35     9    10    1
    36    10    11    1
    37     4     5    1
    38     5     1    1
    39    28    23   ar
    40    11     6    1
    41    17    12   ar
    42    20    21    1
@<TRIPOS>MOLECULE
*****
 39 42 0 0 0
SMALL
GASTEIGER

@<TRIPOS>ATOM
      1 C         140.2116  139.4374  158.5102 C.3     1  UNL1        0.0702
      2 C         140.4506  140.0738  157.1731 C.3     1  UNL1        0.0100
      3 C         141.0356  139.0347  156.2632 C.3     1  UNL1        0.0164
      4 C         141.1583  137.7561  157.0378 C.3     1  UNL1        0.0580
      5 C         140.6490  138.0050  158.4266 C.3     1  UNL1        0.0246
      6 N         141.6958  136.4568  156.5155 N.3     1  UNL1       -0.2739
      7 C         142.9552  135.8804  157.0914 C.3     1  UNL1        0.0724
      8 C         143.4927  134.5811  156.5690 C.3     1  UNL1        0.0218
      9 C         142.7708  133.8582  155.4708 C.3     1  UNL1        0.0282
     10 C         141.5114  134.4346  154.8949 C.3     1  UNL1        0.0218
     11 C         140.9738  135.7339  155.4172 C.3     1  UNL1        0.0724
     12 C         143.3083  132.5588  154.9484 C.ar    1  UNL1        0.0159
     13 C         142.8800  132.0574  153.6012 C.ar    1  UNL1        0.0979
     14 N         143.4175  130.7581  153.0788 N.ar    1  UNL1       -0.2228
     15 C         144.3834  129.9602  153.9038 C.ar    1  UNL1        0.1989
     16 N         144.8117  130.4617  155.2511 N.ar    1  UNL1       -0.2228
     17 C         144.2742  131.7610  155.7734 C.ar    1  UNL1        0.0979
     18 C         139.8662  139.0851  159.9267 C.2     1  UNL1        0.2218
     19 O         140.9489  138.9844  160.9599 O.2     1  UNL1       -0.2751
     20 N         138.4379  138.8333  160.3100 N.am    1  UNL1       -0.3004
     21 H         137.7273  138.8994  159.6318 H       1  UNL1        0.1497
     22 C         138.0924  138.4810  161.7264 C.3     1  UNL1        0.1163
     23 C         138.1410  139.5334  162.7943 C.ar    1  UNL1       -0.0027
     24 C         138.4346  139.1483  164.2140 C.ar    1  UNL1        0.0012
     25 C         138.4831  140.2006  165.2817 C.ar    1  UNL1        0.0711
     26 C         138.2381  141.6381  164.9298 C.ar    1  UNL1        0.0077
     27 C         137.9446  142.0231  163.5102 C.ar    1  UNL1        0.0711
     28 C         137.8960  140.9708  162.4424 C.ar    1  UNL1        0.0012
     29 C         138.7767  139.8156  166.7015 C.3     1  UNL1        0.4186
     30 F         139.0702  139.4306  168.1212 F       1  UNL1       -0.1659
     31 F         137.6455  138.8312  166.6684 F       1  UNL1       -0.1659
     32 F         139.9079  140.8001  166.7346 F       1  UNL1       -0.1659
     33 C         137.6996  143.4605  163.1583 C.3     1  UNL1        0.4186
     34 F         137.4546  144.8979  162.8064 F       1  UNL1       -0.1659
     35 F         137.7734  143.1161  161.7002 F       1  UNL1       -0.1659
     36 F         137.6258  143.8049  164.6163 F       1  UNL1       -0.1659
     37 C         138.3531  141.2504  158.4167 C.3     1  UNL1        0.0005
     38 C         139.7020  140.7961  158.8899 C.3     1  UNL1        0.0082
     39 C         140.5414  141.7005  159.7429 C.3     1  UNL1        0.0005
@<TRIPOS>BOND
     1    37    38    1
     2    38    39    1
     3     1    38    1
     4     1    18    1
     5    18    19    2
     6    18    20   am
     7    20    22    1
     8    22    23    1
     9    23    24   ar
    10    24    25   ar
    11    25    29    1
    12    29    30    1
    13    29    31    1
    14    29    32    1
    15    25    26   ar
    16    26    27   ar
    17    27    33    1
    18    33    34    1
    19    33    35    1
    20    33    36    1
    21    27    28   ar
    22     1     2    1
    23     2     3    1
    24     3     4    1
    25     4     6    1
    26     6     7    1
    27     7     8    1
    28     8     9    1
    29     9    12    1
    30    12    13   ar
    31    13    14   ar
    32    14    15   ar
    33    15    16   ar
    34    16    17   ar
    35     9    10    1
    36    10    11    1
    37     4     5    1
    38     5     1    1
    39    28    23   ar
    40    11     6    1
    41    17    12   ar
    42    20    21    1
@<TRIPOS>MOLECULE
*****
 39 42 0 0 0
SMALL
GASTEIGER

@<TRIPOS>ATOM
      1 C         143.1133  139.2344  162.8763 C.3     1  UNL1        0.0702
      2 C         144.3924  138.7530  162.2582 C.3     1  UNL1        0.0100
      3 C         144.0987  138.3412  160.8461 C.3     1  UNL1        0.0164
      4 C         142.6380  138.5680  160.5914 C.3     1  UNL1        0.0580
      5 C         142.0290  139.1201  161.8461 C.3     1  UNL1        0.0246
      6 N         141.9136  138.2914  159.3074 N.3     1  UNL1       -0.2739
      7 C         140.4778  138.6974  159.1538 C.3     1  UNL1        0.0724
      8 C         139.7533  138.4207  157.8698 C.3     1  UNL1        0.0218
      9 C         140.4647  137.7381  156.7394 C.3     1  UNL1        0.0282
     10 C         141.9006  137.3321  156.8930 C.3     1  UNL1        0.0218
     11 C         142.6250  137.6087  158.1770 C.3     1  UNL1        0.0724
     12 C         139.7402  137.4614  155.4554 C.ar    1  UNL1        0.0159
     13 C         140.3685  136.5838  154.4138 C.ar    1  UNL1        0.0979
     14 N         139.6441  136.3071  153.1298 N.ar    1  UNL1       -0.2228
     15 C         138.2913  136.9082  152.8874 C.ar    1  UNL1        0.1989
     16 N         137.6629  137.7859  153.9291 N.ar    1  UNL1       -0.2228
     17 C         138.3874  138.0625  155.2131 C.ar    1  UNL1        0.0979
     18 C         142.0127  139.7627  163.7477 C.2     1  UNL1        0.2218
     19 O         140.9709  138.8291  164.2890 O.2     1  UNL1       -0.2751
     20 N         141.9538  141.2248  164.0779 N.am    1  UNL1       -0.3004
     21 H         142.6376  141.8376  163.7227 H       1  UNL1        0.1497
     22 C         140.8532  141.7532  164.9494 C.3     1  UNL1        0.1163
     23 C         140.9446  141.6140  166.4402 C.ar    1  UNL1       -0.0027
     24 C         139.7918  141.0441  167.2123 C.ar    1  UNL1        0.0012
     25 C         139.8833  140.9050  168.7030 C.ar    1  UNL1        0.0711
     26 C         141.1276  141.3357  169.4216 C.ar    1  UNL1        0.0077
     27 C         142.2804  141.9055  168.6494 C.ar    1  UNL1        0.0711
     28 C         142.1889  142.0447  167.1587 C.ar    1  UNL1        0.0012
     29 C         138.7305  140.3351  169.4753 C.3     1  UNL1        0.4186
     30 F         137.5777  139.7652  170.2474 F       1  UNL1       -0.1659
     31 F         138.4744  139.3547  168.3693 F       1  UNL1       -0.1659
     32 F         138.9865  141.3155  170.5812 F       1  UNL1       -0.1659
     33 C         143.5246  142.3362  169.3680 C.3     1  UNL1        0.4186
     34 F         144.7689  142.7670  170.0865 F       1  UNL1       -0.1659
     35 F         144.1283  142.7674  168.0643 F       1  UNL1       -0.1659
     36 F         142.9210  141.9051  170.6717 F       1  UNL1       -0.1659
     37 C         143.7004  138.6887  165.3475 C.3     1  UNL1        0.0005
     38 C         143.9675  139.4592  164.0886 C.3     1  UNL1        0.0082
     39 C         145.0887  140.4546  164.0420 C.3     1  UNL1        0.0005
@<TRIPOS>BOND
     1    37    38    1
     2    38    39    1
     3     1    38    1
     4     1    18    1
     5    18    19    2
     6    18    20   am
     7    20    22    1
     8    22    23    1
     9    23    24   ar
    10    24    25   ar
    11    25    29    1
    12    29    30    1
    13    29    31    1
    14    29    32    1
    15    25    26   ar
    16    26    27   ar
    17    27    33    1
    18    33    34    1
    19    33    35    1
    20    33    36    1
    21    27    28   ar
    22     1     2    1
    23     2     3    1
    24     3     4    1
    25     4     6    1
    26     6     7    1
    27     7     8    1
    28     8     9    1
    29     9    12    1
    30    12    13   ar
    31    13    14   ar
    32    14    15   ar
    33    15    16   ar
    34    16    17   ar
    35     9    10    1
    36    10    11    1
    37     4     5    1
    38     5     1    1
    39    28    23   ar
    40    11     6    1
    41    17    12   ar
    42    20    21    1
@<TRIPOS>MOLECULE
*****
 39 42 0 0 0
SMALL
GASTEIGER

@<TRIPOS>ATOM
      1 C         143.3443  142.6523  162.6814 C.3     1  UNL1        0.0702
      2 C         144.5251  143.2204  161.9515 C.3     1  UNL1        0.0100
      3 C         144.6949  142.4512  160.6750 C.3     1  UNL1        0.0164
      4 C         143.6191  141.4076  160.6160 C.3     1  UNL1        0.0580
      5 C         142.7844  141.5319  161.8561 C.3     1  UNL1        0.0246
      6 N         143.4141  140.4141  159.5111 N.3     1  UNL1       -0.2739
      7 C         143.7703  140.7775  158.1001 C.3     1  UNL1        0.0724
      8 C         143.5653  139.7841  156.9951 C.3     1  UNL1        0.0218
      9 C         143.0040  138.4271  157.3011 C.3     1  UNL1        0.0282
     10 C         142.6477  138.0637  158.7122 C.3     1  UNL1        0.0218
     11 C         142.8527  139.0572  159.8172 C.3     1  UNL1        0.0724
     12 C         142.7989  137.4337  156.1961 C.ar    1  UNL1        0.0159
     13 C         142.9188  135.9650  156.4763 C.ar    1  UNL1        0.0979
     14 N         142.7137  134.9715  155.3713 N.ar    1  UNL1       -0.2228
     15 C         142.3888  135.4468  153.9861 C.ar    1  UNL1        0.1989
     16 N         142.2689  136.9156  153.7060 N.ar    1  UNL1       -0.2228
     17 C         142.4740  137.9091  154.8110 C.ar    1  UNL1        0.0979
     18 C         142.2319  142.3031  163.6251 C.2     1  UNL1        0.2218
     19 O         141.1311  143.2885  163.8843 O.2     1  UNL1       -0.2751
     20 N         142.2203  140.9684  164.3097 N.am    1  UNL1       -0.3004
     21 H         142.9428  140.3216  164.1396 H       1  UNL1        0.1497
     22 C         141.1080  140.6192  165.2534 C.3     1  UNL1        0.1163
     23 C         141.2879  140.8143  166.7298 C.ar    1  UNL1       -0.0027
     24 C         141.9072  139.7292  167.5598 C.ar    1  UNL1        0.0012
     25 C         142.0870  139.9244  169.0361 C.ar    1  UNL1        0.0711
     26 C         141.6476  141.2047  169.6824 C.ar    1  UNL1        0.0077
     27 C         141.0283  142.2898  168.8524 C.ar    1  UNL1        0.0711
     28 C         140.8484  142.0946  167.3761 C.ar    1  UNL1        0.0012
     29 C         142.7063  138.8393  169.8662 C.3     1  UNL1        0.4186
     30 F         143.3256  137.7542  170.6963 F       1  UNL1       -0.1659
     31 F         142.3343  139.5823  171.1150 F       1  UNL1       -0.1659
     32 F         143.0784  138.0962  168.6174 F       1  UNL1       -0.1659
     33 C         140.5889  143.5701  169.4987 C.3     1  UNL1        0.4186
     34 F         140.1494  144.8505  170.1450 F       1  UNL1       -0.1659
     35 F         141.2864  143.1703  170.7650 F       1  UNL1       -0.1659
     36 F         139.8913  143.9700  168.2324 F       1  UNL1       -0.1659
     37 C         144.2505  143.2995  165.0287 C.3     1  UNL1        0.0005
     38 C         143.6716  143.6997  163.7041 C.3     1  UNL1        0.0082
     39 C         143.4200  145.1473  163.4021 C.3     1  UNL1        0.0005
@<TRIPOS>BOND
     1    37    38    1
     2    38    39    1
     3     1    38    1
     4     1    18    1
     5    18    19    2
     6    18    20   am
     7    20    22    1
     8    22    23    1
     9    23    24   ar
    10    24    25   ar
    11    25    29    1
    12    29    30    1
    13    29    31    1
    14    29    32    1
    15    25    26   ar
    16    26    27   ar
    17    27    33    1
    18    33    34    1
    19    33    35    1
    20    33    36    1
    21    27    28   ar
    22     1     2    1
    23     2     3    1
    24     3     4    1
    25     4     6    1
    26     6     7    1
    27     7     8    1
    28     8     9    1
    29     9    12    1
    30    12    13   ar
    31    13    14   ar
    32    14    15   ar
    33    15    16   ar
    34    16    17   ar
    35     9    10    1
    36    10    11    1
    37     4     5    1
    38     5     1    1
    39    28    23   ar
    40    11     6    1
    41    17    12   ar
    42    20    21    1
