@<TRIPOS>MOLECULE
*****
 35 38 0 0 0
SMALL
GASTEIGER

@<TRIPOS>ATOM
      1 N         143.6849  140.7849  162.9501 N.pl3   1  UNL1       -0.3046
      2 C         144.2825  142.1394  162.7093 C.3     1  UNL1        0.1081
      3 C         144.5326  142.6105  161.3074 C.3     1  UNL1        0.0938
      4 N         144.1851  141.7270  160.1461 N.3     1  UNL1       -0.2698
      5 C         143.5874  140.3725  160.3868 C.3     1  UNL1        0.0938
      6 C         143.3373  139.9014  161.7888 C.3     1  UNL1        0.1081
      7 C         142.7276  140.8144  166.8014 C.ar    1  UNL1        0.0515
      8 C         142.9346  139.3717  167.1560 C.ar    1  UNL1        0.0148
      9 C         143.3917  138.4001  166.1086 C.ar    1  UNL1        0.0025
     10 C         143.6418  138.8711  164.7066 C.ar    1  UNL1        0.0146
     11 C         143.4348  140.3138  164.3520 C.ar    1  UNL1        0.0492
     12 C         142.9777  141.2854  165.3994 C.ar    1  UNL1        0.0292
     13 O         139.9347  140.6492  167.8841 O.2     1  UNL1       -0.2748
     14 C         140.8741  141.7035  168.3901 C.2     1  UNL1        0.2256
     15 N         142.2705  141.7861  167.8488 N.am    1  UNL1       -0.2839
     16 H         142.8871  142.4780  168.1809 H       1  UNL1        0.1549
     17 C         140.4170  142.6752  169.4375 C.3     1  UNL1        0.0768
     18 C         140.3412  144.0778  169.9635 C.3     1  UNL1        0.0096
     19 C         139.7012  142.9555  170.7255 C.3     1  UNL1        0.0096
     20 C         144.4351  142.1981  158.7441 C.3     1  UNL1        0.0722
     21 C         143.3090  142.7646  157.9311 C.3     1  UNL1        0.0188
     22 C         142.6935  144.0776  158.3148 C.3     1  UNL1        0.0202
     23 C         141.6859  144.1377  159.4244 C.3     1  UNL1        0.0911
     24 N         141.2771  145.4633  159.9952 N.3     1  UNL1       -0.1833
     25 H         140.6395  145.8894  159.3227 H       1  UNL1        0.1484
     26 S         140.6018  145.5277  161.3330 S.O2    1  UNL1        0.0407
     27 O         139.4630  146.2887  160.7215 O.2     1  UNL1       -0.1575
     28 O         141.7407  144.7668  161.9445 O.2     1  UNL1       -0.1575
     29 C         139.9265  145.5922  162.6709 C.3     1  UNL1        0.1688
     30 C         139.3075  144.3588  163.2587 C.3     1  UNL1        0.0253
     31 C         138.2250  143.6351  162.5142 C.3     1  UNL1        0.0018
     32 C         137.6060  142.4017  163.1021 C.3     1  UNL1        0.0001
     33 C         138.0695  141.8920  164.4345 C.3     1  UNL1        0.0000
     34 C         139.1521  142.6158  165.1791 C.3     1  UNL1        0.0001
     35 C         139.7711  143.8492  164.5911 C.3     1  UNL1        0.0018
@<TRIPOS>BOND
     1    13    14    2
     2    14    15   am
     3    15     7    1
     4     7     8   ar
     5     8     9   ar
     6     9    10   ar
     7    10    11   ar
     8    11     1    1
     9     1     2    1
    10     2     3    1
    11     3     4    1
    12     4    20    1
    13    20    21    1
    14    21    22    1
    15    22    23    1
    16    23    24    1
    17    24    26    1
    18    26    27    2
    19    26    28    2
    20    26    29    1
    21    29    30    1
    22    30    31    1
    23    31    32    1
    24    32    33    1
    25    33    34    1
    26    34    35    1
    27     4     5    1
    28     5     6    1
    29    11    12   ar
    30    14    17    1
    31    17    18    1
    32    18    19    1
    33    12     7   ar
    34    19    17    1
    35     6     1    1
    36    35    30    1
    37    15    16    1
    38    24    25    1
@<TRIPOS>MOLECULE
*****
 35 38 0 0 0
SMALL
GASTEIGER

@<TRIPOS>ATOM
      1 N         143.0219  141.3530  160.8796 N.pl3   1  UNL1       -0.3046
      2 C         144.1611  142.1285  160.2871 C.3     1  UNL1        0.1081
      3 C         144.0054  142.7841  158.9470 C.3     1  UNL1        0.0938
      4 N         142.7106  142.6641  158.1992 N.3     1  UNL1       -0.2698
      5 C         141.5715  141.8886  158.7917 C.3     1  UNL1        0.0938
      6 C         141.7272  141.2331  160.1318 C.3     1  UNL1        0.1081
      7 C         142.1324  139.8223  164.4314 C.ar    1  UNL1        0.0515
      8 C         143.4889  139.3864  164.9000 C.ar    1  UNL1        0.0148
      9 C         144.6898  139.6060  164.0285 C.ar    1  UNL1        0.0025
     10 C         144.5342  140.2616  162.6884 C.ar    1  UNL1        0.0146
     11 C         143.1776  140.6975  162.2197 C.ar    1  UNL1        0.0492
     12 C         141.9767  140.4778  163.0912 C.ar    1  UNL1        0.0292
     13 O         140.2877  137.5190  163.8908 O.2     1  UNL1       -0.2748
     14 C         140.0091  138.4511  165.0326 C.2     1  UNL1        0.2256
     15 N         140.9314  139.6027  165.3029 N.am    1  UNL1       -0.2839
     16 H         140.7485  140.2144  166.0523 H       1  UNL1        0.1549
     17 C         138.8081  138.2314  165.9041 C.3     1  UNL1        0.0768
     18 C         137.7626  137.3158  166.4685 C.3     1  UNL1        0.0096
     19 C         137.7734  138.7667  166.8491 C.3     1  UNL1        0.0096
     20 C         142.5550  143.3197  156.8591 C.3     1  UNL1        0.0722
     21 C         141.7695  144.5913  156.7329 C.3     1  UNL1        0.0188
     22 C         141.8806  145.6495  157.7902 C.3     1  UNL1        0.0202
     23 C         140.9605  145.6257  158.9747 C.3     1  UNL1        0.0911
     24 N         141.4990  145.2996  160.3362 N.3     1  UNL1       -0.1833
     25 H         142.1446  146.0491  160.5848 H       1  UNL1        0.1484
     26 S         140.5602  145.1349  161.4944 S.O2    1  UNL1        0.0407
     27 O         141.5326  144.1995  162.1496 O.2     1  UNL1       -0.1575
     28 O         139.5878  146.0703  160.8391 O.2     1  UNL1       -0.1575
     29 C         139.6213  144.9702  162.6526 C.3     1  UNL1        0.1688
     30 C         138.9786  143.6403  162.9138 C.3     1  UNL1        0.0253
     31 C         138.8271  143.1440  164.3212 C.3     1  UNL1        0.0018
     32 C         138.1844  141.8141  164.5824 C.3     1  UNL1        0.0001
     33 C         137.6931  140.9805  163.4362 C.3     1  UNL1        0.0000
     34 C         137.8446  141.4768  162.0288 C.3     1  UNL1        0.0001
     35 C         138.4874  142.8067  161.7677 C.3     1  UNL1        0.0018
@<TRIPOS>BOND
     1    13    14    2
     2    14    15   am
     3    15     7    1
     4     7     8   ar
     5     8     9   ar
     6     9    10   ar
     7    10    11   ar
     8    11     1    1
     9     1     2    1
    10     2     3    1
    11     3     4    1
    12     4    20    1
    13    20    21    1
    14    21    22    1
    15    22    23    1
    16    23    24    1
    17    24    26    1
    18    26    27    2
    19    26    28    2
    20    26    29    1
    21    29    30    1
    22    30    31    1
    23    31    32    1
    24    32    33    1
    25    33    34    1
    26    34    35    1
    27     4     5    1
    28     5     6    1
    29    11    12   ar
    30    14    17    1
    31    17    18    1
    32    18    19    1
    33    12     7   ar
    34    19    17    1
    35     6     1    1
    36    35    30    1
    37    15    16    1
    38    24    25    1
@<TRIPOS>MOLECULE
*****
 35 38 0 0 0
SMALL
GASTEIGER

@<TRIPOS>ATOM
      1 N         143.5535  140.7981  162.9883 N.pl3   1  UNL1       -0.3046
      2 C         143.7791  139.8654  161.8354 C.3     1  UNL1        0.1081
      3 C         144.0115  140.4161  160.4597 C.3     1  UNL1        0.0938
      4 N         144.0184  141.8994  160.2368 N.3     1  UNL1       -0.2698
      5 C         143.7928  142.8321  161.3897 C.3     1  UNL1        0.0938
      6 C         143.5604  142.2814  162.7655 C.3     1  UNL1        0.1081
      7 C         142.1788  140.4154  166.6915 C.ar    1  UNL1        0.0515
      8 C         142.8560  139.1460  167.1156 C.ar    1  UNL1        0.0148
      9 C         143.7657  138.4273  166.1639 C.ar    1  UNL1        0.0025
     10 C         143.9982  138.9779  164.7881 C.ar    1  UNL1        0.0146
     11 C         143.3210  140.2474  164.3641 C.ar    1  UNL1        0.0492
     12 C         142.4113  140.9661  165.3158 C.ar    1  UNL1        0.0292
     13 O         143.2534  142.6225  168.4161 O.2     1  UNL1       -0.2748
     14 C         141.8063  142.2378  168.5055 C.2     1  UNL1        0.2256
     15 N         141.2690  141.1343  167.6433 N.am    1  UNL1       -0.2839
     16 H         140.3193  140.8817  167.7019 H       1  UNL1        0.1549
     17 C         140.8965  142.9566  169.4572 C.3     1  UNL1        0.0768
     18 C         139.8686  142.9209  170.5490 C.3     1  UNL1        0.0096
     19 C         140.3488  144.2373  170.0139 C.3     1  UNL1        0.0096
     20 C         144.2509  142.4501  158.8611 C.3     1  UNL1        0.0722
     21 C         143.1590  143.2024  158.1599 C.3     1  UNL1        0.0188
     22 C         141.9414  142.4752  157.6713 C.3     1  UNL1        0.0202
     23 C         140.8558  142.0981  158.6353 C.3     1  UNL1        0.0911
     24 N         140.6940  140.6688  159.0609 N.3     1  UNL1       -0.1833
     25 H         141.6285  140.3149  159.2654 H       1  UNL1        0.1484
     26 S         139.8347  140.3310  160.2431 S.O2    1  UNL1        0.0407
     27 O         140.5871  141.3271  161.0746 O.2     1  UNL1       -0.1575
     28 O         139.0823  139.3349  159.4115 O.2     1  UNL1       -0.1575
     29 C         138.9755  139.9932  161.4253 C.3     1  UNL1        0.1688
     30 C         139.5120  139.1137  162.5155 C.3     1  UNL1        0.0253
     31 C         139.0137  139.2732  163.9213 C.3     1  UNL1        0.0018
     32 C         139.5502  138.3937  165.0115 C.3     1  UNL1        0.0001
     33 C         140.5850  137.3546  164.6960 C.3     1  UNL1        0.0000
     34 C         141.0832  137.1950  163.2902 C.3     1  UNL1        0.0001
     35 C         140.5467  138.0746  162.1999 C.3     1  UNL1        0.0018
@<TRIPOS>BOND
     1    13    14    2
     2    14    15   am
     3    15     7    1
     4     7     8   ar
     5     8     9   ar
     6     9    10   ar
     7    10    11   ar
     8    11     1    1
     9     1     2    1
    10     2     3    1
    11     3     4    1
    12     4    20    1
    13    20    21    1
    14    21    22    1
    15    22    23    1
    16    23    24    1
    17    24    26    1
    18    26    27    2
    19    26    28    2
    20    26    29    1
    21    29    30    1
    22    30    31    1
    23    31    32    1
    24    32    33    1
    25    33    34    1
    26    34    35    1
    27     4     5    1
    28     5     6    1
    29    11    12   ar
    30    14    17    1
    31    17    18    1
    32    18    19    1
    33    12     7   ar
    34    19    17    1
    35     6     1    1
    36    35    30    1
    37    15    16    1
    38    24    25    1
@<TRIPOS>MOLECULE
*****
 35 38 0 0 0
SMALL
GASTEIGER

@<TRIPOS>ATOM
      1 N         138.8278  140.8776  163.4796 N.pl3   1  UNL1       -0.3046
      2 C         138.1289  142.1423  163.0769 C.3     1  UNL1        0.1081
      3 C         138.0387  142.5207  161.6282 C.3     1  UNL1        0.0938
      4 N         138.6474  141.6345  160.5822 N.3     1  UNL1       -0.2698
      5 C         139.3463  140.3699  160.9849 C.3     1  UNL1        0.0938
      6 C         139.4365  139.9915  162.4336 C.3     1  UNL1        0.1081
      7 C         139.8485  140.9364  167.3142 C.ar    1  UNL1        0.0515
      8 C         139.0984  139.7423  167.8256 C.ar    1  UNL1        0.0148
      9 C         138.2581  138.9267  166.8882 C.ar    1  UNL1        0.0025
     10 C         138.1679  139.3051  165.4396 C.ar    1  UNL1        0.0146
     11 C         138.9180  140.4992  164.9282 C.ar    1  UNL1        0.0492
     12 C         139.7583  141.3148  165.8656 C.ar    1  UNL1        0.0292
     13 O         142.7000  140.1617  167.8325 O.2     1  UNL1       -0.2748
     14 C         142.1146  141.3647  168.5107 C.2     1  UNL1        0.2256
     15 N         140.6888  141.7521  168.2516 N.am    1  UNL1       -0.2839
     16 H         140.3046  142.5417  168.6967 H       1  UNL1        0.1549
     17 C         142.9549  142.1804  169.4481 C.3     1  UNL1        0.0768
     18 C         143.0617  143.1430  170.5935 C.3     1  UNL1        0.0096
     19 C         144.3035  142.6307  169.9261 C.3     1  UNL1        0.0096
     20 C         138.5572  142.0130  159.1336 C.3     1  UNL1        0.0722
     21 C         139.2049  143.2752  158.6464 C.3     1  UNL1        0.0188
     22 C         140.5227  143.7100  159.2158 C.3     1  UNL1        0.0202
     23 C         140.5724  144.8038  160.2412 C.3     1  UNL1        0.0911
     24 N         141.8619  145.1189  160.9398 N.3     1  UNL1       -0.1833
     25 H         141.8781  146.1281  161.0869 H       1  UNL1        0.1484
     26 S         142.1730  144.4835  162.2624 S.O2    1  UNL1        0.0407
     27 O         143.6148  144.3650  161.8663 O.2     1  UNL1       -0.1575
     28 O         140.7311  144.6020  162.6585 O.2     1  UNL1       -0.1575
     29 C         142.4842  143.8481  163.5851 C.3     1  UNL1        0.1688
     30 C         143.3286  142.6097  163.6421 C.3     1  UNL1        0.0253
     31 C         144.7622  142.6987  164.0746 C.3     1  UNL1        0.0018
     32 C         145.6067  141.4604  164.1316 C.3     1  UNL1        0.0001
     33 C         145.0176  140.1329  163.7560 C.3     1  UNL1        0.0000
     34 C         143.5841  140.0439  163.3235 C.3     1  UNL1        0.0001
     35 C         142.7396  141.2824  163.2666 C.3     1  UNL1        0.0018
@<TRIPOS>BOND
     1    13    14    2
     2    14    15   am
     3    15     7    1
     4     7     8   ar
     5     8     9   ar
     6     9    10   ar
     7    10    11   ar
     8    11     1    1
     9     1     2    1
    10     2     3    1
    11     3     4    1
    12     4    20    1
    13    20    21    1
    14    21    22    1
    15    22    23    1
    16    23    24    1
    17    24    26    1
    18    26    27    2
    19    26    28    2
    20    26    29    1
    21    29    30    1
    22    30    31    1
    23    31    32    1
    24    32    33    1
    25    33    34    1
    26    34    35    1
    27     4     5    1
    28     5     6    1
    29    11    12   ar
    30    14    17    1
    31    17    18    1
    32    18    19    1
    33    12     7   ar
    34    19    17    1
    35     6     1    1
    36    35    30    1
    37    15    16    1
    38    24    25    1
@<TRIPOS>MOLECULE
*****
 35 38 0 0 0
SMALL
GASTEIGER

@<TRIPOS>ATOM
      1 N         141.2131  139.2242  162.5803 N.pl3   1  UNL1       -0.3046
      2 C         140.5842  139.7139  161.3096 C.3     1  UNL1        0.1081
      3 C         141.4310  139.9400  160.0923 C.3     1  UNL1        0.0938
      4 N         142.9067  139.6765  160.1457 N.3     1  UNL1       -0.2698
      5 C         143.5356  139.1869  161.4164 C.3     1  UNL1        0.0938
      6 C         142.6888  138.9607  162.6337 C.3     1  UNL1        0.1081
      7 C         139.4191  139.8363  166.0669 C.ar    1  UNL1        0.0515
      8 C         138.6727  138.5458  166.2321 C.ar    1  UNL1        0.0148
      9 C         138.7732  137.4813  165.1801 C.ar    1  UNL1        0.0025
     10 C         139.6200  137.7075  163.9628 C.ar    1  UNL1        0.0146
     11 C         140.3663  138.9981  163.7976 C.ar    1  UNL1        0.0492
     12 C         140.2659  140.0625  164.8496 C.ar    1  UNL1        0.0292
     13 O         141.6446  140.2055  168.0445 O.2     1  UNL1       -0.2748
     14 C         140.4314  141.0854  168.1078 C.2     1  UNL1        0.2256
     15 N         139.3186  140.9008  167.1190 N.am    1  UNL1       -0.2839
     16 H         138.5224  141.4783  167.1605 H       1  UNL1        0.1549
     17 C         140.3310  142.1499  169.1599 C.3     1  UNL1        0.0768
     18 C         140.6632  143.5285  169.6488 C.3     1  UNL1        0.0096
     19 C         139.8248  142.6151  170.4931 C.3     1  UNL1        0.0096
     20 C         143.7535  139.9027  158.9284 C.3     1  UNL1        0.0722
     21 C         143.8737  141.2786  158.3435 C.3     1  UNL1        0.0188
     22 C         144.4889  142.3848  159.1485 C.3     1  UNL1        0.0202
     23 C         143.7342  142.9855  160.2973 C.3     1  UNL1        0.0911
     24 N         144.4777  143.5222  161.4843 N.3     1  UNL1       -0.1833
     25 H         144.9335  144.3830  161.1816 H       1  UNL1        0.1484
     26 S         143.7386  143.8452  162.7490 S.O2    1  UNL1        0.0407
     27 O         144.3455  145.2169  162.7533 O.2     1  UNL1       -0.1575
     28 O         143.1317  142.4735  162.7446 O.2     1  UNL1       -0.1575
     29 C         142.9994  144.1683  164.0137 C.3     1  UNL1        0.1688
     30 C         141.5050  144.2960  163.9972 C.3     1  UNL1        0.0253
     31 C         140.8279  145.0388  162.8838 C.3     1  UNL1        0.0018
     32 C         139.3335  145.1665  162.8673 C.3     1  UNL1        0.0001
     33 C         138.5161  144.5513  163.9643 C.3     1  UNL1        0.0000
     34 C         139.1931  143.8085  165.0778 C.3     1  UNL1        0.0001
     35 C         140.6876  143.6808  165.0942 C.3     1  UNL1        0.0018
@<TRIPOS>BOND
     1    13    14    2
     2    14    15   am
     3    15     7    1
     4     7     8   ar
     5     8     9   ar
     6     9    10   ar
     7    10    11   ar
     8    11     1    1
     9     1     2    1
    10     2     3    1
    11     3     4    1
    12     4    20    1
    13    20    21    1
    14    21    22    1
    15    22    23    1
    16    23    24    1
    17    24    26    1
    18    26    27    2
    19    26    28    2
    20    26    29    1
    21    29    30    1
    22    30    31    1
    23    31    32    1
    24    32    33    1
    25    33    34    1
    26    34    35    1
    27     4     5    1
    28     5     6    1
    29    11    12   ar
    30    14    17    1
    31    17    18    1
    32    18    19    1
    33    12     7   ar
    34    19    17    1
    35     6     1    1
    36    35    30    1
    37    15    16    1
    38    24    25    1
@<TRIPOS>MOLECULE
*****
 35 38 0 0 0
SMALL
GASTEIGER

@<TRIPOS>ATOM
      1 N         141.6115  140.5788  161.5299 N.pl3   1  UNL1       -0.3046
      2 C         141.0335  140.4409  160.1527 C.3     1  UNL1        0.1081
      3 C         141.4225  141.4095  159.0755 C.3     1  UNL1        0.0938
      4 N         142.3895  142.5162  159.3756 N.3     1  UNL1       -0.2698
      5 C         142.9675  142.6542  160.7528 C.3     1  UNL1        0.0938
      6 C         142.5785  141.6855  161.8300 C.3     1  UNL1        0.1081
      7 C         140.2313  139.1438  164.9630 C.ar    1  UNL1        0.0515
      8 C         140.4445  137.6728  164.7615 C.ar    1  UNL1        0.0148
      9 C         141.0466  137.1704  163.4828 C.ar    1  UNL1        0.0025
     10 C         141.4356  138.1391  162.4056 C.ar    1  UNL1        0.0146
     11 C         141.2225  139.6101  162.6071 C.ar    1  UNL1        0.0492
     12 C         140.6203  140.1125  163.8858 C.ar    1  UNL1        0.0292
     13 O         141.9891  139.7154  167.3259 O.2     1  UNL1       -0.2748
     14 C         140.5080  139.9320  167.4231 C.2     1  UNL1        0.2256
     15 N         139.6291  139.6462  166.2417 N.am    1  UNL1       -0.2839
     16 H         138.6570  139.7883  166.3055 H       1  UNL1        0.1549
     17 C         139.9058  140.4344  168.7018 C.3     1  UNL1        0.0768
     18 C         139.9062  141.4070  169.8437 C.3     1  UNL1        0.0096
     19 C         138.8625  140.3319  169.7746 C.3     1  UNL1        0.0096
     20 C         142.7785  143.4849  158.2984 C.3     1  UNL1        0.0722
     21 C         142.1363  144.8392  158.2399 C.3     1  UNL1        0.0188
     22 C         140.6617  144.9807  158.4756 C.3     1  UNL1        0.0202
     23 C         140.1579  145.4801  159.7973 C.3     1  UNL1        0.0911
     24 N         139.5387  144.5243  160.7736 N.3     1  UNL1       -0.1833
     25 H         139.8286  143.5876  160.4928 H       1  UNL1        0.1484
     26 S         139.8378  144.6494  162.2381 S.O2    1  UNL1        0.0407
     27 O         139.5210  143.1954  162.4269 O.2     1  UNL1       -0.1575
     28 O         140.1546  146.1033  162.0492 O.2     1  UNL1       -0.1575
     29 C         140.1370  144.7744  163.7027 C.3     1  UNL1        0.1688
     30 C         141.4461  144.2830  164.2454 C.3     1  UNL1        0.0253
     31 C         141.4708  143.1714  165.2522 C.3     1  UNL1        0.0018
     32 C         142.7800  142.6800  165.7949 C.3     1  UNL1        0.0001
     33 C         144.0646  143.3002  165.3308 C.3     1  UNL1        0.0000
     34 C         144.0398  144.4119  164.3240 C.3     1  UNL1        0.0001
     35 C         142.7306  144.9032  163.7813 C.3     1  UNL1        0.0018
@<TRIPOS>BOND
     1    13    14    2
     2    14    15   am
     3    15     7    1
     4     7     8   ar
     5     8     9   ar
     6     9    10   ar
     7    10    11   ar
     8    11     1    1
     9     1     2    1
    10     2     3    1
    11     3     4    1
    12     4    20    1
    13    20    21    1
    14    21    22    1
    15    22    23    1
    16    23    24    1
    17    24    26    1
    18    26    27    2
    19    26    28    2
    20    26    29    1
    21    29    30    1
    22    30    31    1
    23    31    32    1
    24    32    33    1
    25    33    34    1
    26    34    35    1
    27     4     5    1
    28     5     6    1
    29    11    12   ar
    30    14    17    1
    31    17    18    1
    32    18    19    1
    33    12     7   ar
    34    19    17    1
    35     6     1    1
    36    35    30    1
    37    15    16    1
    38    24    25    1
@<TRIPOS>MOLECULE
*****
 35 38 0 0 0
SMALL
GASTEIGER

@<TRIPOS>ATOM
      1 N         140.8158  138.7086  163.1909 N.pl3   1  UNL1       -0.3046
      2 C         139.9643  138.7876  161.9585 C.3     1  UNL1        0.1081
      3 C         140.5716  138.5370  160.6100 C.3     1  UNL1        0.0938
      4 N         142.0304  138.2076  160.4939 N.3     1  UNL1       -0.2698
      5 C         142.8818  138.1287  161.7263 C.3     1  UNL1        0.0938
      6 C         142.2745  138.3792  163.0747 C.3     1  UNL1        0.1081
      7 C         140.4425  139.7673  166.9974 C.ar    1  UNL1        0.0515
      8 C         138.9939  139.4602  167.2364 C.ar    1  UNL1        0.0148
      9 C         138.1526  138.9026  166.1268 C.ar    1  UNL1        0.0025
     10 C         138.7598  138.6521  164.7783 C.ar    1  UNL1        0.0146
     11 C         140.2085  138.9592  164.5394 C.ar    1  UNL1        0.0492
     12 C         141.0498  139.5167  165.6489 C.ar    1  UNL1        0.0292
     13 O         141.2820  142.6469  166.9417 O.2     1  UNL1       -0.2748
     14 C         141.7037  141.7646  168.0791 C.2     1  UNL1        0.2256
     15 N         141.2840  140.3249  168.1070 N.am    1  UNL1       -0.2839
     16 H         141.5607  139.7458  168.8536 H       1  UNL1        0.1549
     17 C         142.5451  142.3222  169.1887 C.3     1  UNL1        0.0768
     18 C         143.8741  142.4513  169.8722 C.3     1  UNL1        0.0096
     19 C         142.6735  143.1589  170.4271 C.3     1  UNL1        0.0096
     20 C         142.6377  137.9571  159.1454 C.3     1  UNL1        0.0722
     21 C         142.9270  139.1077  158.2277 C.3     1  UNL1        0.0188
     22 C         143.6566  140.3128  158.7428 C.3     1  UNL1        0.0202
     23 C         142.8938  141.4339  159.3844 C.3     1  UNL1        0.0911
     24 N         143.6261  142.6260  159.9253 N.3     1  UNL1       -0.1833
     25 H         143.4313  143.4028  159.2935 H       1  UNL1        0.1484
     26 S         143.3399  143.1154  161.3140 S.O2    1  UNL1        0.0407
     27 O         144.0666  141.9319  161.8808 O.2     1  UNL1       -0.1575
     28 O         142.6133  144.2989  160.7473 O.2     1  UNL1       -0.1575
     29 C         143.0538  143.6047  162.7029 C.3     1  UNL1        0.1688
     30 C         141.6506  143.5807  163.2323 C.3     1  UNL1        0.0253
     31 C         141.1008  144.7752  163.9541 C.3     1  UNL1        0.0018
     32 C         139.6976  144.7512  164.4835 C.3     1  UNL1        0.0001
     33 C         138.8441  143.5327  164.2912 C.3     1  UNL1        0.0000
     34 C         139.3939  142.3382  163.5694 C.3     1  UNL1        0.0001
     35 C         140.7972  142.3623  163.0399 C.3     1  UNL1        0.0018
@<TRIPOS>BOND
     1    13    14    2
     2    14    15   am
     3    15     7    1
     4     7     8   ar
     5     8     9   ar
     6     9    10   ar
     7    10    11   ar
     8    11     1    1
     9     1     2    1
    10     2     3    1
    11     3     4    1
    12     4    20    1
    13    20    21    1
    14    21    22    1
    15    22    23    1
    16    23    24    1
    17    24    26    1
    18    26    27    2
    19    26    28    2
    20    26    29    1
    21    29    30    1
    22    30    31    1
    23    31    32    1
    24    32    33    1
    25    33    34    1
    26    34    35    1
    27     4     5    1
    28     5     6    1
    29    11    12   ar
    30    14    17    1
    31    17    18    1
    32    18    19    1
    33    12     7   ar
    34    19    17    1
    35     6     1    1
    36    35    30    1
    37    15    16    1
    38    24    25    1
@<TRIPOS>MOLECULE
*****
 35 38 0 0 0
SMALL
GASTEIGER

@<TRIPOS>ATOM
      1 N         140.7524  143.2277  161.3201 N.pl3   1  UNL1       -0.3046
      2 C         142.2181  143.1807  161.6355 C.3     1  UNL1        0.1081
      3 C         143.2248  143.1737  160.5235 C.3     1  UNL1        0.0938
      4 N         142.7658  143.2137  159.0960 N.3     1  UNL1       -0.2698
      5 C         141.3001  143.2606  158.7806 C.3     1  UNL1        0.0938
      6 C         140.2934  143.2676  159.8926 C.3     1  UNL1        0.1081
      7 C         138.2371  141.9462  164.1095 C.ar    1  UNL1        0.0515
      8 C         137.7324  143.2486  164.6561 C.ar    1  UNL1        0.0148
      9 C         138.2343  144.5441  164.0906 C.ar    1  UNL1        0.0025
     10 C         139.2410  144.5371  162.9786 C.ar    1  UNL1        0.0146
     11 C         139.7457  143.2347  162.4321 C.ar    1  UNL1        0.0492
     12 C         139.2438  141.9392  162.9975 C.ar    1  UNL1        0.0292
     13 O         139.7275  140.6063  166.3419 O.2     1  UNL1       -0.2748
     14 C         138.4804  139.9807  165.7911 C.2     1  UNL1        0.2256
     15 N         137.7352  140.6506  164.6749 N.am    1  UNL1       -0.2839
     16 H         136.9167  140.2400  164.3135 H       1  UNL1        0.1549
     17 C         137.9784  138.6851  166.3566 C.3     1  UNL1        0.0768
     18 C         137.1836  137.9385  167.3865 C.3     1  UNL1        0.0096
     19 C         137.9039  137.1878  166.3060 C.3     1  UNL1        0.0096
     20 C         143.7724  143.2067  157.9840 C.3     1  UNL1        0.0722
     21 C         144.5014  141.9416  157.6402 C.3     1  UNL1        0.0188
     22 C         143.7701  140.8103  156.9803 C.3     1  UNL1        0.0202
     23 C         143.1820  139.7102  157.8133 C.3     1  UNL1        0.0911
     24 N         142.5443  140.0279  159.1333 N.3     1  UNL1       -0.1833
     25 H         141.6311  140.4338  158.9290 H       1  UNL1        0.1484
     26 S         142.3186  138.9381  160.1389 S.O2    1  UNL1        0.0407
     27 O         141.1449  139.6911  160.6916 O.2     1  UNL1       -0.1575
     28 O         143.4923  138.1851  159.5863 O.2     1  UNL1       -0.1575
     29 C         142.0929  137.8483  161.1446 C.3     1  UNL1        0.1688
     30 C         142.3516  138.1050  162.5996 C.3     1  UNL1        0.0253
     31 C         141.3578  137.6548  163.6290 C.3     1  UNL1        0.0018
     32 C         141.6166  137.9115  165.0840 C.3     1  UNL1        0.0001
     33 C         142.8692  138.6186  165.5097 C.3     1  UNL1        0.0000
     34 C         143.8630  139.0689  164.4803 C.3     1  UNL1        0.0001
     35 C         143.6041  138.8121  163.0252 C.3     1  UNL1        0.0018
@<TRIPOS>BOND
     1    13    14    2
     2    14    15   am
     3    15     7    1
     4     7     8   ar
     5     8     9   ar
     6     9    10   ar
     7    10    11   ar
     8    11     1    1
     9     1     2    1
    10     2     3    1
    11     3     4    1
    12     4    20    1
    13    20    21    1
    14    21    22    1
    15    22    23    1
    16    23    24    1
    17    24    26    1
    18    26    27    2
    19    26    28    2
    20    26    29    1
    21    29    30    1
    22    30    31    1
    23    31    32    1
    24    32    33    1
    25    33    34    1
    26    34    35    1
    27     4     5    1
    28     5     6    1
    29    11    12   ar
    30    14    17    1
    31    17    18    1
    32    18    19    1
    33    12     7   ar
    34    19    17    1
    35     6     1    1
    36    35    30    1
    37    15    16    1
    38    24    25    1
@<TRIPOS>MOLECULE
*****
 35 38 0 0 0
SMALL
GASTEIGER

@<TRIPOS>ATOM
      1 N         139.9244  140.4809  161.1159 N.pl3   1  UNL1       -0.3046
      2 C         141.2824  141.0919  160.9357 C.3     1  UNL1        0.1081
      3 C         141.5466  142.0034  159.7741 C.3     1  UNL1        0.0938
      4 N         140.4529  142.3038  158.7926 N.3     1  UNL1       -0.2698
      5 C         139.0949  141.6928  158.9728 C.3     1  UNL1        0.0938
      6 C         138.8307  140.7813  160.1344 C.3     1  UNL1        0.1081
      7 C         139.7490  139.0942  164.8302 C.ar    1  UNL1        0.0515
      8 C         139.1318  137.7465  164.6008 C.ar    1  UNL1        0.0148
      9 C         138.7788  137.3102  163.2098 C.ar    1  UNL1        0.0025
     10 C         139.0430  138.2217  162.0481 C.ar    1  UNL1        0.0146
     11 C         139.6602  139.5694  162.2775 C.ar    1  UNL1        0.0492
     12 C         140.0132  140.0057  163.6686 C.ar    1  UNL1        0.0292
     13 O         137.6544  139.0985  166.9780 O.2     1  UNL1       -0.2748
     14 C         139.0547  139.5326  167.2951 C.2     1  UNL1        0.2256
     15 N         140.1020  139.5305  166.2213 N.am    1  UNL1       -0.2839
     16 H         141.0211  139.8154  166.4295 H       1  UNL1        0.1549
     17 C         139.4078  139.9689  168.6862 C.3     1  UNL1        0.0768
     18 C         140.4182  140.1127  169.7855 C.3     1  UNL1        0.0096
     19 C         139.0088  140.5808  169.9964 C.3     1  UNL1        0.0096
     20 C         140.7171  143.2153  157.6310 C.3     1  UNL1        0.0722
     21 C         141.2264  144.6059  157.8694 C.3     1  UNL1        0.0188
     22 C         140.3906  145.5900  158.6330 C.3     1  UNL1        0.0202
     23 C         140.3941  145.5724  160.1329 C.3     1  UNL1        0.0911
     24 N         139.4545  144.6683  160.8745 N.3     1  UNL1       -0.1833
     25 H         139.7125  143.7120  160.6309 H       1  UNL1        0.1484
     26 S         139.3803  144.7289  162.3714 S.O2    1  UNL1        0.0407
     27 O         140.1738  146.0017  162.3592 O.2     1  UNL1       -0.1575
     28 O         138.5868  143.4560  162.3835 O.2     1  UNL1       -0.1575
     29 C         139.3061  144.7895  163.8683 C.3     1  UNL1        0.1688
     30 C         140.2628  143.9875  164.6998 C.3     1  UNL1        0.0253
     31 C         141.6037  143.6086  164.1444 C.3     1  UNL1        0.0018
     32 C         142.5605  142.8065  164.9758 C.3     1  UNL1        0.0001
     33 C         142.1764  142.3833  166.3627 C.3     1  UNL1        0.0000
     34 C         140.8355  142.7622  166.9181 C.3     1  UNL1        0.0001
     35 C         139.8787  143.5643  166.0866 C.3     1  UNL1        0.0018
@<TRIPOS>BOND
     1    13    14    2
     2    14    15   am
     3    15     7    1
     4     7     8   ar
     5     8     9   ar
     6     9    10   ar
     7    10    11   ar
     8    11     1    1
     9     1     2    1
    10     2     3    1
    11     3     4    1
    12     4    20    1
    13    20    21    1
    14    21    22    1
    15    22    23    1
    16    23    24    1
    17    24    26    1
    18    26    27    2
    19    26    28    2
    20    26    29    1
    21    29    30    1
    22    30    31    1
    23    31    32    1
    24    32    33    1
    25    33    34    1
    26    34    35    1
    27     4     5    1
    28     5     6    1
    29    11    12   ar
    30    14    17    1
    31    17    18    1
    32    18    19    1
    33    12     7   ar
    34    19    17    1
    35     6     1    1
    36    35    30    1
    37    15    16    1
    38    24    25    1
