@<TRIPOS>MOLECULE
*****
 42 46 0 0 0
SMALL
GASTEIGER

@<TRIPOS>ATOM
      1 C         140.4991  145.0930  162.0863 C.2     1  UNL1        0.2251
      2 O         140.0997  146.5369  162.0120 O.2     1  UNL1       -0.2749
      3 N         140.9098  144.3634  160.8418 N.am    1  UNL1       -0.2795
      4 C         141.3092  142.9195  160.9161 C.3     1  UNL1        0.0940
      5 C         141.7200  142.1898  159.6715 C.3     1  UNL1        0.0297
      6 C         141.7314  142.9042  158.3526 C.3     1  UNL1        0.0425
      7 C         141.3320  144.3482  158.2783 C.3     1  UNL1        0.0297
      8 C         140.9212  145.0778  159.5228 C.3     1  UNL1        0.0940
      9 C         140.4649  142.9499  166.0431 C.3     1  UNL1        0.0542
     10 C         141.7691  143.2742  165.3770 C.3     1  UNL1        0.0162
     11 C         141.7805  143.9885  164.0581 C.3     1  UNL1        0.0104
     12 C         140.4877  144.3786  163.4052 C.3     1  UNL1        0.0768
     13 C         139.1833  144.0543  164.0713 C.3     1  UNL1        0.0095
     14 C         137.7046  143.9677  164.3078 C.3     1  UNL1        0.0005
     15 C         138.6812  144.7386  162.8345 C.3     1  UNL1        0.0005
     16 C         139.1719  143.3400  165.3902 C.3     1  UNL1        0.0162
     17 N         140.4535  142.2355  167.3620 N.3     1  UNL1       -0.2962
     18 H         141.4128  142.2417  167.7085 H       1  UNL1        0.1235
     19 C         139.9732  140.8168  167.4424 C.3     1  UNL1        0.0768
     20 C         139.5203  140.2517  168.7560 C.3     1  UNL1        0.0220
     21 C         139.8913  138.2560  163.7430 C.ar    1  UNL1        0.1387
     22 C         138.6213  138.8585  164.2664 C.ar    1  UNL1        0.0366
     23 C         138.6486  139.7121  165.4995 C.ar    1  UNL1        0.0001
     24 C         139.9459  139.9632  166.2093 C.ar    1  UNL1       -0.0078
     25 C         141.2160  139.3607  165.6859 C.ar    1  UNL1        0.0001
     26 C         141.1887  138.5071  164.4528 C.ar    1  UNL1        0.0366
     27 C         139.5627  138.0201  161.1767 C.3     1  UNL1        0.2525
     28 O         139.8640  137.4024  162.5099 O.3     1  UNL1       -0.4714
     29 C         141.9021  143.1463  156.8822 C.ar    1  UNL1       -0.0189
     30 C         143.2779  143.2564  156.2949 C.ar    1  UNL1       -0.0040
     31 C         143.4486  143.4985  154.8244 C.ar    1  UNL1       -0.0003
     32 C         142.2435  143.6305  153.9412 C.ar    1  UNL1       -0.0000
     33 C         140.8676  143.5204  154.5285 C.ar    1  UNL1       -0.0003
     34 C         140.6969  143.2783  155.9989 C.ar    1  UNL1       -0.0040
     35 C         142.1900  141.5443  157.9163 C.ar    1  UNL1        0.0005
     36 C         141.2515  140.6379  157.1765 C.ar    1  UNL1        0.0024
     37 C         141.7101  139.2780  156.7402 C.ar    1  UNL1        0.0574
     38 C         143.1074  138.8246  157.0437 C.ar    1  UNL1        0.2250
     39 N         144.0460  139.7311  157.7835 N.ar    1  UNL1       -0.2105
     40 C         143.5873  141.0909  158.2198 C.ar    1  UNL1        0.0980
     41 O         143.5661  137.4647  156.6074 O.3     1  UNL1       -0.4561
     42 C         142.7553  136.2520  156.9563 C.3     1  UNL1        0.2542
@<TRIPOS>BOND
     1    27    28    1
     2    28    21    1
     3    21    22   ar
     4    22    23   ar
     5    23    24   ar
     6    24    19    1
     7    19    20    1
     8    19    17    1
     9     9    17    1
    10     9    10    1
    11    10    11    1
    12    11    12    1
    13    12     1    1
    14     1     2    2
    15     1     3   am
    16     3     4    1
    17     4     5    1
    18     5     6    1
    19     6    29    1
    20    29    30   ar
    21    30    31   ar
    22    31    32   ar
    23    32    33   ar
    24    33    34   ar
    25     6    35    1
    26    35    36   ar
    27    36    37   ar
    28    37    38   ar
    29    38    41    1
    30    41    42    1
    31    38    39   ar
    32    39    40   ar
    33     6     7    1
    34     7     8    1
    35    12    13    1
    36    13    14    1
    37    13    15    1
    38    13    16    1
    39    24    25   ar
    40    25    26   ar
    41    26    21   ar
    42    16     9    1
    43     8     3    1
    44    34    29   ar
    45    40    35   ar
    46    17    18    1
@<TRIPOS>MOLECULE
*****
 42 46 0 0 0
SMALL
GASTEIGER

@<TRIPOS>ATOM
      1 C         140.5267  144.2582  161.6182 C.2     1  UNL1        0.2251
      2 O         141.4363  145.2757  162.2409 O.2     1  UNL1       -0.2749
      3 N         140.2498  144.3018  160.1447 N.am    1  UNL1       -0.2795
      4 C         139.3403  143.2844  159.5221 C.3     1  UNL1        0.0940
      5 C         139.0632  143.3279  158.0485 C.3     1  UNL1        0.0297
      6 C         139.6958  144.3889  157.1976 C.3     1  UNL1        0.0425
      7 C         140.6053  145.4064  157.8202 C.3     1  UNL1        0.0297
      8 C         140.8823  145.3628  159.2937 C.3     1  UNL1        0.0940
      9 C         138.6291  141.0752  164.1712 C.3     1  UNL1        0.0542
     10 C         139.8002  140.7364  163.2973 C.3     1  UNL1        0.0162
     11 C         140.4327  141.7974  162.4463 C.3     1  UNL1        0.0104
     12 C         139.8942  143.1972  162.4692 C.3     1  UNL1        0.0768
     13 C         138.7230  143.5360  163.3431 C.3     1  UNL1        0.0095
     14 C         137.6411  144.3403  164.0009 C.3     1  UNL1        0.0005
     15 C         138.9798  144.8763  162.7206 C.3     1  UNL1        0.0005
     16 C         138.0905  142.4750  164.1941 C.3     1  UNL1        0.0162
     17 N         137.9965  140.0142  165.0221 N.3     1  UNL1       -0.2962
     18 H         137.4683  140.4962  165.7495 H       1  UNL1        0.1235
     19 C         138.8547  138.9962  165.7128 C.3     1  UNL1        0.0768
     20 C         138.6759  137.5373  165.4134 C.3     1  UNL1        0.0220
     21 C         141.9659  140.3187  168.6829 C.ar    1  UNL1        0.1387
     22 C         142.3850  139.7863  167.3447 C.ar    1  UNL1        0.0366
     23 C         141.3479  139.3455  166.3547 C.ar    1  UNL1        0.0001
     24 C         139.8918  139.4370  166.7028 C.ar    1  UNL1       -0.0078
     25 C         139.4727  139.9694  168.0411 C.ar    1  UNL1        0.0001
     26 C         140.5098  140.4102  169.0311 C.ar    1  UNL1        0.0366
     27 C         143.5283  142.1640  169.6337 C.3     1  UNL1        0.2525
     28 O         143.0030  140.7596  169.6730 O.3     1  UNL1       -0.4714
     29 C         140.0559  145.1936  155.9840 C.ar    1  UNL1       -0.0189
     30 C         139.4660  146.5586  155.7871 C.ar    1  UNL1       -0.0040
     31 C         139.8262  147.3634  154.5735 C.ar    1  UNL1       -0.0003
     32 C         140.7761  146.8031  153.5569 C.ar    1  UNL1       -0.0000
     33 C         141.3660  145.4381  153.7538 C.ar    1  UNL1       -0.0003
     34 C         141.0059  144.6334  154.9674 C.ar    1  UNL1       -0.0040
     35 C         138.9113  143.6510  156.1535 C.ar    1  UNL1        0.0005
     36 C         137.7131  144.2947  155.5213 C.ar    1  UNL1        0.0024
     37 C         136.9286  143.5567  154.4773 C.ar    1  UNL1        0.0574
     38 C         137.3425  142.1750  154.0655 C.ar    1  UNL1        0.2250
     39 N         138.5407  141.5312  154.6977 N.ar    1  UNL1       -0.2105
     40 C         139.3252  142.2692  155.7417 C.ar    1  UNL1        0.0980
     41 O         136.5580  141.4370  153.0215 O.3     1  UNL1       -0.4561
     42 C         135.2721  140.7582  153.3898 C.3     1  UNL1        0.2542
@<TRIPOS>BOND
     1    27    28    1
     2    28    21    1
     3    21    22   ar
     4    22    23   ar
     5    23    24   ar
     6    24    19    1
     7    19    20    1
     8    19    17    1
     9     9    17    1
    10     9    10    1
    11    10    11    1
    12    11    12    1
    13    12     1    1
    14     1     2    2
    15     1     3   am
    16     3     4    1
    17     4     5    1
    18     5     6    1
    19     6    29    1
    20    29    30   ar
    21    30    31   ar
    22    31    32   ar
    23    32    33   ar
    24    33    34   ar
    25     6    35    1
    26    35    36   ar
    27    36    37   ar
    28    37    38   ar
    29    38    41    1
    30    41    42    1
    31    38    39   ar
    32    39    40   ar
    33     6     7    1
    34     7     8    1
    35    12    13    1
    36    13    14    1
    37    13    15    1
    38    13    16    1
    39    24    25   ar
    40    25    26   ar
    41    26    21   ar
    42    16     9    1
    43     8     3    1
    44    34    29   ar
    45    40    35   ar
    46    17    18    1
@<TRIPOS>MOLECULE
*****
 42 46 0 0 0
SMALL
GASTEIGER

@<TRIPOS>ATOM
      1 C         140.2402  145.0333  162.0004 C.2     1  UNL1        0.2251
      2 O         140.1159  146.5261  161.9209 O.2     1  UNL1       -0.2749
      3 N         140.2450  144.2132  160.7445 N.am    1  UNL1       -0.2795
      4 C         140.3693  142.7205  160.8241 C.3     1  UNL1        0.0940
      5 C         140.3741  141.9003  159.5681 C.3     1  UNL1        0.0297
      6 C         140.2546  142.5728  158.2327 C.3     1  UNL1        0.0425
      7 C         140.1302  144.0656  158.1532 C.3     1  UNL1        0.0297
      8 C         140.1255  144.8857  159.4091 C.3     1  UNL1        0.0940
      9 C         140.5988  143.0156  166.0067 C.3     1  UNL1        0.0542
     10 C         141.8218  143.2400  165.1678 C.3     1  UNL1        0.0162
     11 C         141.7023  143.9125  163.8324 C.3     1  UNL1        0.0104
     12 C         140.3597  144.3608  163.3359 C.3     1  UNL1        0.0768
     13 C         139.1366  144.1364  164.1748 C.3     1  UNL1        0.0095
     14 C         137.6986  144.1469  164.6014 C.3     1  UNL1        0.0005
     15 C         138.5177  144.8126  162.9875 C.3     1  UNL1        0.0005
     16 C         139.2561  143.4639  165.5102 C.3     1  UNL1        0.0162
     17 N         140.7183  142.3431  167.3422 N.3     1  UNL1       -0.2962
     18 H         141.7043  142.3761  167.6013 H       1  UNL1        0.1235
     19 C         140.2746  140.9198  167.5075 C.3     1  UNL1        0.0768
     20 C         140.0410  140.3617  168.8800 C.3     1  UNL1        0.0220
     21 C         139.6443  138.3243  163.8859 C.ar    1  UNL1        0.1387
     22 C         141.0293  138.5477  164.4166 C.ar    1  UNL1        0.0366
     23 C         141.2394  139.4129  165.6238 C.ar    1  UNL1        0.0001
     24 C         140.0645  140.0546  166.3003 C.ar    1  UNL1       -0.0078
     25 C         138.6795  139.8312  165.7696 C.ar    1  UNL1        0.0001
     26 C         138.4693  138.9660  164.5624 C.ar    1  UNL1        0.0366
     27 C         139.5585  138.0466  161.3042 C.3     1  UNL1        0.2525
     28 O         139.4342  137.4591  162.6787 O.3     1  UNL1       -0.4714
     29 C         140.1677  142.7481  156.7456 C.ar    1  UNL1       -0.0189
     30 C         138.8919  142.4258  156.0256 C.ar    1  UNL1       -0.0040
     31 C         138.8051  142.6011  154.5384 C.ar    1  UNL1       -0.0003
     32 C         139.9940  143.0987  153.7712 C.ar    1  UNL1       -0.0000
     33 C         141.2699  143.4210  154.4911 C.ar    1  UNL1       -0.0003
     34 C         141.3568  143.2457  155.9783 C.ar    1  UNL1       -0.0040
     35 C         140.3487  141.1410  157.7958 C.ar    1  UNL1        0.0005
     36 C         141.6113  140.6300  157.1676 C.ar    1  UNL1        0.0024
     37 C         141.7054  139.1982  156.7307 C.ar    1  UNL1        0.0574
     38 C         140.5369  138.2773  156.9219 C.ar    1  UNL1        0.2250
     39 N         139.2743  138.7882  157.5501 N.ar    1  UNL1       -0.2105
     40 C         139.1801  140.2201  157.9870 C.ar    1  UNL1        0.0980
     41 O         140.6310  136.8454  156.4850 O.3     1  UNL1       -0.4561
     42 C         141.9626  136.1554  156.4581 C.3     1  UNL1        0.2542
@<TRIPOS>BOND
     1    27    28    1
     2    28    21    1
     3    21    22   ar
     4    22    23   ar
     5    23    24   ar
     6    24    19    1
     7    19    20    1
     8    19    17    1
     9     9    17    1
    10     9    10    1
    11    10    11    1
    12    11    12    1
    13    12     1    1
    14     1     2    2
    15     1     3   am
    16     3     4    1
    17     4     5    1
    18     5     6    1
    19     6    29    1
    20    29    30   ar
    21    30    31   ar
    22    31    32   ar
    23    32    33   ar
    24    33    34   ar
    25     6    35    1
    26    35    36   ar
    27    36    37   ar
    28    37    38   ar
    29    38    41    1
    30    41    42    1
    31    38    39   ar
    32    39    40   ar
    33     6     7    1
    34     7     8    1
    35    12    13    1
    36    13    14    1
    37    13    15    1
    38    13    16    1
    39    24    25   ar
    40    25    26   ar
    41    26    21   ar
    42    16     9    1
    43     8     3    1
    44    34    29   ar
    45    40    35   ar
    46    17    18    1
@<TRIPOS>MOLECULE
*****
 42 46 0 0 0
SMALL
GASTEIGER

@<TRIPOS>ATOM
      1 C         143.4941  138.6763  161.7038 C.2     1  UNL1        0.2251
      2 O         144.2895  137.4392  161.4088 O.2     1  UNL1       -0.2749
      3 N         143.1802  139.6463  160.6036 N.am    1  UNL1       -0.2795
      4 C         142.3849  140.8834  160.8987 C.3     1  UNL1        0.0940
      5 C         142.0710  141.8535  159.7985 C.3     1  UNL1        0.0297
      6 C         142.5524  141.5864  158.4032 C.3     1  UNL1        0.0425
      7 C         143.3478  140.3493  158.1081 C.3     1  UNL1        0.0297
      8 C         143.6617  139.3793  159.2083 C.3     1  UNL1        0.0940
      9 C         142.0498  139.4774  165.8898 C.3     1  UNL1        0.0542
     10 C         143.2538  140.1988  165.3609 C.3     1  UNL1        0.0162
     11 C         143.7353  139.9318  163.9656 C.3     1  UNL1        0.0104
     12 C         143.0127  138.9433  163.0992 C.3     1  UNL1        0.0768
     13 C         141.8085  138.2219  163.6280 C.3     1  UNL1        0.0095
     14 C         140.6294  137.2961  163.6784 C.3     1  UNL1        0.0005
     15 C         141.8805  137.6334  162.2502 C.3     1  UNL1        0.0005
     16 C         141.3271  138.4889  165.0233 C.3     1  UNL1        0.0162
     17 N         141.5683  139.7444  167.2851 N.3     1  UNL1       -0.2962
     18 H         141.4948  138.8393  167.7495 H       1  UNL1        0.1235
     19 C         140.2641  140.4516  167.5060 C.3     1  UNL1        0.0768
     20 C         139.4911  140.2217  168.7708 C.3     1  UNL1        0.0220
     21 C         138.6703  143.2630  164.3745 C.ar    1  UNL1        0.1387
     22 C         138.1401  141.8628  164.4651 C.ar    1  UNL1        0.0366
     23 C         138.6713  140.9257  165.5090 C.ar    1  UNL1        0.0001
     24 C         139.7328  141.3887  166.4622 C.ar    1  UNL1       -0.0078
     25 C         140.2631  142.7889  166.3716 C.ar    1  UNL1        0.0001
     26 C         139.7318  143.7260  165.3278 C.ar    1  UNL1        0.0366
     27 C         139.0638  145.1625  162.6463 C.3     1  UNL1        0.2525
     28 O         138.1390  144.2001  163.3307 O.3     1  UNL1       -0.4714
     29 C         142.7858  141.7713  156.9331 C.ar    1  UNL1       -0.0189
     30 C         141.9538  141.0146  155.9406 C.ar    1  UNL1       -0.0040
     31 C         142.1872  141.1995  154.4704 C.ar    1  UNL1       -0.0003
     32 C         143.2526  142.1411  153.9927 C.ar    1  UNL1       -0.0000
     33 C         144.0846  142.8978  154.9852 C.ar    1  UNL1       -0.0003
     34 C         143.8513  142.7130  156.4554 C.ar    1  UNL1       -0.0040
     35 C         141.8382  142.8877  158.1877 C.ar    1  UNL1        0.0005
     36 C         140.4614  142.8980  157.5925 C.ar    1  UNL1        0.0024
     37 C         139.7471  144.1993  157.3771 C.ar    1  UNL1        0.0574
     38 C         140.4097  145.4903  157.7569 C.ar    1  UNL1        0.2250
     39 N         141.7864  145.4801  158.3521 N.ar    1  UNL1       -0.2105
     40 C         142.5007  144.1788  158.5675 C.ar    1  UNL1        0.0980
     41 O         139.6954  146.7916  157.5414 O.3     1  UNL1       -0.4561
     42 C         139.2148  147.1655  156.1706 C.3     1  UNL1        0.2542
@<TRIPOS>BOND
     1    27    28    1
     2    28    21    1
     3    21    22   ar
     4    22    23   ar
     5    23    24   ar
     6    24    19    1
     7    19    20    1
     8    19    17    1
     9     9    17    1
    10     9    10    1
    11    10    11    1
    12    11    12    1
    13    12     1    1
    14     1     2    2
    15     1     3   am
    16     3     4    1
    17     4     5    1
    18     5     6    1
    19     6    29    1
    20    29    30   ar
    21    30    31   ar
    22    31    32   ar
    23    32    33   ar
    24    33    34   ar
    25     6    35    1
    26    35    36   ar
    27    36    37   ar
    28    37    38   ar
    29    38    41    1
    30    41    42    1
    31    38    39   ar
    32    39    40   ar
    33     6     7    1
    34     7     8    1
    35    12    13    1
    36    13    14    1
    37    13    15    1
    38    13    16    1
    39    24    25   ar
    40    25    26   ar
    41    26    21   ar
    42    16     9    1
    43     8     3    1
    44    34    29   ar
    45    40    35   ar
    46    17    18    1
@<TRIPOS>MOLECULE
*****
 42 46 0 0 0
SMALL
GASTEIGER

@<TRIPOS>ATOM
      1 C         144.8546  141.5789  162.7984 C.2     1  UNL1        0.2251
      2 O         146.3465  141.7306  162.8347 O.2     1  UNL1       -0.2749
      3 N         144.1024  141.8638  161.5324 N.am    1  UNL1       -0.2795
      4 C         142.6105  141.7120  161.4961 C.3     1  UNL1        0.0940
      5 C         141.8582  141.9969  160.2300 C.3     1  UNL1        0.0297
      6 C         142.5978  142.4336  159.0003 C.3     1  UNL1        0.0425
      7 C         144.0897  142.5853  159.0366 C.3     1  UNL1        0.0297
      8 C         144.8419  142.3004  160.3026 C.3     1  UNL1        0.0940
      9 C         142.6359  140.2689  166.4877 C.3     1  UNL1        0.0542
     10 C         142.8537  139.3030  165.3610 C.3     1  UNL1        0.0162
     11 C         143.5933  139.7397  164.1312 C.3     1  UNL1        0.0104
     12 C         144.1151  141.1422  164.0282 C.3     1  UNL1        0.0768
     13 C         143.8973  142.1081  165.1550 C.3     1  UNL1        0.0095
     14 C         143.9417  143.3789  165.9507 C.3     1  UNL1        0.0005
     15 C         144.6523  142.9861  164.2016 C.3     1  UNL1        0.0005
     16 C         143.1577  141.6715  166.3848 C.3     1  UNL1        0.0162
     17 N         141.8963  139.8322  167.7175 N.3     1  UNL1       -0.2962
     18 H         141.9798  138.8168  167.7663 H       1  UNL1        0.1235
     19 C         140.4395  140.1548  167.8707 C.3     1  UNL1        0.0768
     20 C         139.7905  140.0700  169.2204 C.3     1  UNL1        0.0220
     21 C         138.0159  141.3769  164.2815 C.ar    1  UNL1        0.1387
     22 C         138.8217  142.3998  165.0260 C.ar    1  UNL1        0.0366
     23 C         139.6296  141.9925  166.2224 C.ar    1  UNL1        0.0001
     24 C         139.6316  140.5622  166.6743 C.ar    1  UNL1       -0.0078
     25 C         138.8259  139.5393  165.9298 C.ar    1  UNL1        0.0001
     26 C         138.0180  139.9467  164.7334 C.ar    1  UNL1        0.0366
     27 C         137.8959  142.1253  161.7964 C.3     1  UNL1        0.2525
     28 O         137.2081  141.7843  163.0851 O.3     1  UNL1       -0.4714
     29 C         142.8496  142.8702  157.5875 C.ar    1  UNL1       -0.0189
     30 C         143.5747  141.9615  156.6396 C.ar    1  UNL1       -0.0040
     31 C         143.8265  142.3981  155.2268 C.ar    1  UNL1       -0.0003
     32 C         143.3533  143.7434  154.7619 C.ar    1  UNL1       -0.0000
     33 C         142.6283  144.6521  155.7098 C.ar    1  UNL1       -0.0003
     34 C         142.3764  144.2156  157.1226 C.ar    1  UNL1       -0.0040
     35 C         141.1934  142.4335  158.4734 C.ar    1  UNL1        0.0005
     36 C         140.7721  141.4095  157.4614 C.ar    1  UNL1        0.0024
     37 C         139.3677  141.4094  156.9345 C.ar    1  UNL1        0.0574
     38 C         138.3846  142.4333  157.4196 C.ar    1  UNL1        0.2250
     39 N         138.8059  143.4572  158.4315 N.ar    1  UNL1       -0.2105
     40 C         140.2103  143.4573  158.9584 C.ar    1  UNL1        0.0980
     41 O         136.9802  142.4332  156.8927 O.3     1  UNL1       -0.4561
     42 C         136.3585  141.1545  156.4146 C.3     1  UNL1        0.2542
@<TRIPOS>BOND
     1    27    28    1
     2    28    21    1
     3    21    22   ar
     4    22    23   ar
     5    23    24   ar
     6    24    19    1
     7    19    20    1
     8    19    17    1
     9     9    17    1
    10     9    10    1
    11    10    11    1
    12    11    12    1
    13    12     1    1
    14     1     2    2
    15     1     3   am
    16     3     4    1
    17     4     5    1
    18     5     6    1
    19     6    29    1
    20    29    30   ar
    21    30    31   ar
    22    31    32   ar
    23    32    33   ar
    24    33    34   ar
    25     6    35    1
    26    35    36   ar
    27    36    37   ar
    28    37    38   ar
    29    38    41    1
    30    41    42    1
    31    38    39   ar
    32    39    40   ar
    33     6     7    1
    34     7     8    1
    35    12    13    1
    36    13    14    1
    37    13    15    1
    38    13    16    1
    39    24    25   ar
    40    25    26   ar
    41    26    21   ar
    42    16     9    1
    43     8     3    1
    44    34    29   ar
    45    40    35   ar
    46    17    18    1
@<TRIPOS>MOLECULE
*****
 42 46 0 0 0
SMALL
GASTEIGER

@<TRIPOS>ATOM
      1 C         144.7996  141.8088  163.1374 C.2     1  UNL1        0.2251
      2 O         146.2978  141.8513  163.1988 O.2     1  UNL1       -0.2749
      3 N         144.0967  142.0086  161.8274 N.am    1  UNL1       -0.2795
      4 C         142.5986  141.9661  161.7660 C.3     1  UNL1        0.0940
      5 C         141.8956  142.1660  160.4560 C.3     1  UNL1        0.0297
      6 C         142.6908  142.4083  159.2075 C.3     1  UNL1        0.0425
      7 C         144.1890  142.4508  159.2689 C.3     1  UNL1        0.0297
      8 C         144.8919  142.2510  160.5789 C.3     1  UNL1        0.0940
      9 C         142.4139  141.0817  166.8830 C.3     1  UNL1        0.0542
     10 C         142.6332  142.4825  166.3936 C.3     1  UNL1        0.0162
     11 C         143.4284  142.7248  165.1450 C.3     1  UNL1        0.0104
     12 C         144.0043  141.5664  164.3859 C.3     1  UNL1        0.0768
     13 C         143.7850  140.1655  164.8753 C.3     1  UNL1        0.0095
     14 C         143.8497  138.6683  164.9388 C.3     1  UNL1        0.0005
     15 C         144.6027  139.8879  163.6489 C.3     1  UNL1        0.0005
     16 C         142.9898  139.9231  166.1239 C.3     1  UNL1        0.0162
     17 N         141.6186  140.8393  168.1315 N.3     1  UNL1       -0.2962
     18 H         142.0733  140.0717  168.6259 H       1  UNL1        0.1235
     19 C         140.1625  140.4917  168.0377 C.3     1  UNL1        0.0768
     20 C         139.3417  140.3567  169.2859 C.3     1  UNL1        0.0220
     21 C         138.2565  139.8539  164.0115 C.ar    1  UNL1        0.1387
     22 C         138.5338  141.2454  164.4980 C.ar    1  UNL1        0.0366
     23 C         139.1691  141.4580  165.8401 C.ar    1  UNL1        0.0001
     24 C         139.5272  140.2791  166.6956 C.ar    1  UNL1       -0.0078
     25 C         139.2499  138.8876  166.2090 C.ar    1  UNL1        0.0001
     26 C         138.6146  138.6750  164.8670 C.ar    1  UNL1        0.0366
     27 C         137.9362  138.4069  161.8776 C.3     1  UNL1        0.2525
     28 O         137.6212  139.6413  162.6694 O.3     1  UNL1       -0.4714
     29 C         143.0035  142.6671  157.7635 C.ar    1  UNL1       -0.0189
     30 C         142.5930  143.9622  157.1277 C.ar    1  UNL1       -0.0040
     31 C         142.9057  144.2210  155.6836 C.ar    1  UNL1       -0.0003
     32 C         143.6288  143.1848  154.8754 C.ar    1  UNL1       -0.0000
     33 C         144.0393  141.8898  155.5112 C.ar    1  UNL1       -0.0003
     34 C         143.7267  141.6309  156.9553 C.ar    1  UNL1       -0.0040
     35 C         141.3013  142.4557  158.6446 C.ar    1  UNL1        0.0005
     36 C         140.8180  141.3558  157.7465 C.ar    1  UNL1        0.0024
     37 C         139.4284  141.4032  157.1836 C.ar    1  UNL1        0.0574
     38 C         138.5222  142.5505  157.5189 C.ar    1  UNL1        0.2250
     39 N         139.0054  143.6504  158.4170 N.ar    1  UNL1       -0.2105
     40 C         140.3950  143.6030  158.9798 C.ar    1  UNL1        0.0980
     41 O         137.1326  142.5979  156.9560 O.3     1  UNL1       -0.4561
     42 C         136.8433  143.4290  155.7413 C.3     1  UNL1        0.2542
@<TRIPOS>BOND
     1    27    28    1
     2    28    21    1
     3    21    22   ar
     4    22    23   ar
     5    23    24   ar
     6    24    19    1
     7    19    20    1
     8    19    17    1
     9     9    17    1
    10     9    10    1
    11    10    11    1
    12    11    12    1
    13    12     1    1
    14     1     2    2
    15     1     3   am
    16     3     4    1
    17     4     5    1
    18     5     6    1
    19     6    29    1
    20    29    30   ar
    21    30    31   ar
    22    31    32   ar
    23    32    33   ar
    24    33    34   ar
    25     6    35    1
    26    35    36   ar
    27    36    37   ar
    28    37    38   ar
    29    38    41    1
    30    41    42    1
    31    38    39   ar
    32    39    40   ar
    33     6     7    1
    34     7     8    1
    35    12    13    1
    36    13    14    1
    37    13    15    1
    38    13    16    1
    39    24    25   ar
    40    25    26   ar
    41    26    21   ar
    42    16     9    1
    43     8     3    1
    44    34    29   ar
    45    40    35   ar
    46    17    18    1
@<TRIPOS>MOLECULE
*****
 42 46 0 0 0
SMALL
GASTEIGER

@<TRIPOS>ATOM
      1 C         138.1261  141.7308  162.7886 C.2     1  UNL1        0.2251
      2 O         136.6263  141.7050  162.8010 O.2     1  UNL1       -0.2749
      3 N         138.8671  141.6386  161.4877 N.am    1  UNL1       -0.2795
      4 C         140.3668  141.6644  161.4753 C.3     1  UNL1        0.0940
      5 C         141.1078  141.5721  160.1744 C.3     1  UNL1        0.0297
      6 C         140.3491  141.4540  158.8858 C.3     1  UNL1        0.0425
      7 C         138.8493  141.4282  158.8982 C.3     1  UNL1        0.0297
      8 C         138.1084  141.5205  160.1991 C.3     1  UNL1        0.0940
      9 C         140.4023  142.0851  166.6543 C.3     1  UNL1        0.0542
     10 C         140.1288  140.7326  166.0662 C.3     1  UNL1        0.0162
     11 C         139.3701  140.6145  164.7776 C.3     1  UNL1        0.0104
     12 C         138.8848  141.8489  164.0772 C.3     1  UNL1        0.0768
     13 C         139.1582  143.2015  164.6653 C.3     1  UNL1        0.0095
     14 C         139.1695  144.6929  164.8252 C.3     1  UNL1        0.0005
     15 C         138.4034  143.6013  163.4323 C.3     1  UNL1        0.0005
     16 C         139.9169  143.3196  165.9538 C.3     1  UNL1        0.0162
     17 N         141.1610  142.2032  167.9428 N.3     1  UNL1       -0.2962
     18 H         140.8912  143.0926  168.3630 H       1  UNL1        0.1235
     19 C         142.6604  142.1644  167.9366 C.3     1  UNL1        0.0768
     20 C         143.4176  142.2253  169.2300 C.3     1  UNL1        0.0220
     21 C         144.8872  141.8657  164.0376 C.ar    1  UNL1        0.1387
     22 C         144.2749  140.6397  164.6474 C.ar    1  UNL1        0.0366
     23 C         143.5327  140.7393  165.9471 C.ar    1  UNL1        0.0001
     24 C         143.4027  142.0649  166.6369 C.ar    1  UNL1       -0.0078
     25 C         144.0150  143.2909  166.0270 C.ar    1  UNL1        0.0001
     26 C         144.7572  143.1913  164.7274 C.ar    1  UNL1        0.0366
     27 C         144.9086  141.9967  161.4429 C.3     1  UNL1        0.2525
     28 O         145.6295  141.7661  162.7379 O.3     1  UNL1       -0.4714
     29 C         140.0786  141.3300  157.4157 C.ar    1  UNL1       -0.0189
     30 C         139.6503  140.0125  156.8405 C.ar    1  UNL1       -0.0040
     31 C         139.3798  139.8884  155.3702 C.ar    1  UNL1       -0.0003
     32 C         139.5376  141.0817  154.4753 C.ar    1  UNL1       -0.0000
     33 C         139.9658  142.3992  155.0505 C.ar    1  UNL1       -0.0003
     34 C         140.2364  142.5233  156.5207 C.ar    1  UNL1       -0.0040
     35 C         141.7549  141.4368  158.3629 C.ar    1  UNL1        0.0005
     36 C         142.3541  140.1552  157.8646 C.ar    1  UNL1        0.0024
     37 C         143.7599  140.1379  157.3417 C.ar    1  UNL1        0.0574
     38 C         144.5665  141.4024  157.3171 C.ar    1  UNL1        0.2250
     39 N         143.9673  142.6840  157.8154 N.ar    1  UNL1       -0.2105
     40 C         142.5615  142.7013  158.3383 C.ar    1  UNL1        0.0980
     41 O         145.9723  141.3851  156.7942 O.3     1  UNL1       -0.4561
     42 C         146.8435  142.5968  156.9448 C.3     1  UNL1        0.2542
@<TRIPOS>BOND
     1    27    28    1
     2    28    21    1
     3    21    22   ar
     4    22    23   ar
     5    23    24   ar
     6    24    19    1
     7    19    20    1
     8    19    17    1
     9     9    17    1
    10     9    10    1
    11    10    11    1
    12    11    12    1
    13    12     1    1
    14     1     2    2
    15     1     3   am
    16     3     4    1
    17     4     5    1
    18     5     6    1
    19     6    29    1
    20    29    30   ar
    21    30    31   ar
    22    31    32   ar
    23    32    33   ar
    24    33    34   ar
    25     6    35    1
    26    35    36   ar
    27    36    37   ar
    28    37    38   ar
    29    38    41    1
    30    41    42    1
    31    38    39   ar
    32    39    40   ar
    33     6     7    1
    34     7     8    1
    35    12    13    1
    36    13    14    1
    37    13    15    1
    38    13    16    1
    39    24    25   ar
    40    25    26   ar
    41    26    21   ar
    42    16     9    1
    43     8     3    1
    44    34    29   ar
    45    40    35   ar
    46    17    18    1
@<TRIPOS>MOLECULE
*****
 42 46 0 0 0
SMALL
GASTEIGER

@<TRIPOS>ATOM
      1 C         140.3486  144.4939  162.3913 C.2     1  UNL1        0.2251
      2 O         141.0578  145.6809  162.9728 O.2     1  UNL1       -0.2749
      3 N         140.1610  144.3854  160.9070 N.am    1  UNL1       -0.2795
      4 C         139.4518  143.1984  160.3256 C.3     1  UNL1        0.0940
      5 C         139.2641  143.0898  158.8413 C.3     1  UNL1        0.0297
      6 C         139.7856  144.1683  157.9385 C.3     1  UNL1        0.0425
      7 C         140.4948  145.3553  158.5201 C.3     1  UNL1        0.0297
      8 C         140.6825  145.4638  160.0043 C.3     1  UNL1        0.0940
      9 C         138.7841  141.2586  165.0996 C.3     1  UNL1        0.0542
     10 C         137.8288  142.1898  164.4140 C.3     1  UNL1        0.0162
     11 C         138.3503  143.2683  163.5112 C.3     1  UNL1        0.0104
     12 C         139.8271  143.4154  163.2940 C.3     1  UNL1        0.0768
     13 C         140.7825  142.4842  163.9796 C.3     1  UNL1        0.0095
     14 C         142.0749  141.8510  164.4027 C.3     1  UNL1        0.0005
     15 C         141.7528  143.3427  163.2238 C.3     1  UNL1        0.0005
     16 C         140.2610  141.4057  164.8824 C.3     1  UNL1        0.0162
     17 N         138.2626  140.1801  166.0023 N.3     1  UNL1       -0.2962
     18 H         138.6990  140.3221  166.9133 H       1  UNL1        0.1235
     19 C         138.4674  138.7380  165.6441 C.3     1  UNL1        0.0768
     20 C         137.7840  137.6639  166.4373 C.3     1  UNL1        0.0220
     21 C         141.1322  137.6342  162.1901 C.ar    1  UNL1        0.1387
     22 C         139.7011  138.0094  161.9432 C.ar    1  UNL1        0.0366
     23 C         138.8128  138.3773  163.0945 C.ar    1  UNL1        0.0001
     24 C         139.3557  138.3701  164.4928 C.ar    1  UNL1       -0.0078
     25 C         140.7868  137.9949  164.7397 C.ar    1  UNL1        0.0001
     26 C         141.6751  137.6269  163.5883 C.ar    1  UNL1        0.0366
     27 C         143.4356  137.7617  160.9950 C.3     1  UNL1        0.2525
     28 O         142.0205  137.2662  161.0387 O.3     1  UNL1       -0.4714
     29 C         140.0986  144.9258  156.6823 C.ar    1  UNL1       -0.0189
     30 C         139.3561  146.1897  156.3640 C.ar    1  UNL1       -0.0040
     31 C         139.6691  146.9473  155.1078 C.ar    1  UNL1       -0.0003
     32 C         140.7245  146.4411  154.1699 C.ar    1  UNL1       -0.0000
     33 C         141.4669  145.1772  154.4882 C.ar    1  UNL1       -0.0003
     34 C         141.1540  144.4195  155.7444 C.ar    1  UNL1       -0.0040
     35 C         139.1851  143.2444  156.9208 C.ar    1  UNL1        0.0005
     36 C         137.9292  143.6365  156.2004 C.ar    1  UNL1        0.0024
     37 C         137.3287  142.7126  155.1827 C.ar    1  UNL1        0.0574
     38 C         137.9842  141.3965  154.8853 C.ar    1  UNL1        0.2250
     39 N         139.2400  141.0044  155.6057 N.ar    1  UNL1       -0.2105
     40 C         139.8405  141.9283  156.6234 C.ar    1  UNL1        0.0980
     41 O         137.3837  140.4726  153.8676 O.3     1  UNL1       -0.4561
     42 C         135.9305  140.5885  153.5143 C.3     1  UNL1        0.2542
@<TRIPOS>BOND
     1    27    28    1
     2    28    21    1
     3    21    22   ar
     4    22    23   ar
     5    23    24   ar
     6    24    19    1
     7    19    20    1
     8    19    17    1
     9     9    17    1
    10     9    10    1
    11    10    11    1
    12    11    12    1
    13    12     1    1
    14     1     2    2
    15     1     3   am
    16     3     4    1
    17     4     5    1
    18     5     6    1
    19     6    29    1
    20    29    30   ar
    21    30    31   ar
    22    31    32   ar
    23    32    33   ar
    24    33    34   ar
    25     6    35    1
    26    35    36   ar
    27    36    37   ar
    28    37    38   ar
    29    38    41    1
    30    41    42    1
    31    38    39   ar
    32    39    40   ar
    33     6     7    1
    34     7     8    1
    35    12    13    1
    36    13    14    1
    37    13    15    1
    38    13    16    1
    39    24    25   ar
    40    25    26   ar
    41    26    21   ar
    42    16     9    1
    43     8     3    1
    44    34    29   ar
    45    40    35   ar
    46    17    18    1
@<TRIPOS>MOLECULE
*****
 42 46 0 0 0
SMALL
GASTEIGER

@<TRIPOS>ATOM
      1 C         142.9819  143.7624  162.1901 C.2     1  UNL1        0.2251
      2 O         144.2343  144.5881  162.1909 O.2     1  UNL1       -0.2749
      3 N         142.2739  143.4751  160.8994 N.am    1  UNL1       -0.2795
      4 C         141.0216  142.6494  160.8987 C.3     1  UNL1        0.0940
      5 C         140.3134  142.3620  159.6079 C.3     1  UNL1        0.0297
      6 C         140.8576  142.9004  158.3179 C.3     1  UNL1        0.0425
      7 C         142.1099  143.7261  158.3187 C.3     1  UNL1        0.0297
      8 C         142.8180  144.0134  159.6094 C.3     1  UNL1        0.0940
      9 C         141.3494  142.1473  166.0601 C.3     1  UNL1        0.0542
     10 C         140.7352  143.3659  165.4374 C.3     1  UNL1        0.0162
     11 C         141.2794  143.9042  164.1474 C.3     1  UNL1        0.0104
     12 C         142.4378  143.2240  163.4801 C.3     1  UNL1        0.0768
     13 C         143.0521  142.0054  164.1028 C.3     1  UNL1        0.0095
     14 C         143.9655  140.8322  164.3014 C.3     1  UNL1        0.0005
     15 C         143.9134  142.1363  162.8818 C.3     1  UNL1        0.0005
     16 C         142.5079  141.4670  165.3927 C.3     1  UNL1        0.0162
     17 N         140.8053  141.6089  167.3500 N.3     1  UNL1       -0.2962
     18 H         141.6036  141.2741  167.8895 H       1  UNL1        0.1235
     19 C         139.7974  140.4981  167.3334 C.3     1  UNL1        0.0768
     20 C         139.2488  139.9639  168.6232 C.3     1  UNL1        0.0220
     21 C         138.4199  138.7683  163.4142 C.ar    1  UNL1        0.1387
     22 C         137.8920  140.0943  163.8756 C.ar    1  UNL1        0.0366
     23 C         138.3512  140.6709  165.1820 C.ar    1  UNL1        0.0001
     24 C         139.3383  139.9215  166.0270 C.ar    1  UNL1       -0.0078
     25 C         139.8661  138.5955  165.5656 C.ar    1  UNL1        0.0001
     26 C         139.4069  138.0189  164.2592 C.ar    1  UNL1        0.0366
     27 C         137.6032  139.1020  160.9705 C.3     1  UNL1        0.2525
     28 O         137.9607  138.1917  162.1078 O.3     1  UNL1       -0.4714
     29 C         140.9818  143.1865  156.8508 C.ar    1  UNL1       -0.0189
     30 C         140.6442  144.5486  156.3210 C.ar    1  UNL1       -0.0040
     31 C         140.7684  144.8347  154.8538 C.ar    1  UNL1       -0.0003
     32 C         141.2303  143.7588  153.9163 C.ar    1  UNL1       -0.0000
     33 C         141.5680  142.3967  154.4461 C.ar    1  UNL1       -0.0003
     34 C         141.4438  142.1105  155.9132 C.ar    1  UNL1       -0.0040
     35 C         139.6484  142.1741  157.8076 C.ar    1  UNL1        0.0005
     36 C         138.4743  142.9472  157.2846 C.ar    1  UNL1        0.0024
     37 C         137.2652  142.2209  156.7743 C.ar    1  UNL1        0.0574
     38 C         137.2302  140.7213  156.7871 C.ar    1  UNL1        0.2250
     39 N         138.4043  139.9482  157.3101 N.ar    1  UNL1       -0.2105
     40 C         139.6135  140.6745  157.8204 C.ar    1  UNL1        0.0980
     41 O         136.0211  139.9950  156.2768 O.3     1  UNL1       -0.4561
     42 C         134.7400  140.7405  156.0464 C.3     1  UNL1        0.2542
@<TRIPOS>BOND
     1    27    28    1
     2    28    21    1
     3    21    22   ar
     4    22    23   ar
     5    23    24   ar
     6    24    19    1
     7    19    20    1
     8    19    17    1
     9     9    17    1
    10     9    10    1
    11    10    11    1
    12    11    12    1
    13    12     1    1
    14     1     2    2
    15     1     3   am
    16     3     4    1
    17     4     5    1
    18     5     6    1
    19     6    29    1
    20    29    30   ar
    21    30    31   ar
    22    31    32   ar
    23    32    33   ar
    24    33    34   ar
    25     6    35    1
    26    35    36   ar
    27    36    37   ar
    28    37    38   ar
    29    38    41    1
    30    41    42    1
    31    38    39   ar
    32    39    40   ar
    33     6     7    1
    34     7     8    1
    35    12    13    1
    36    13    14    1
    37    13    15    1
    38    13    16    1
    39    24    25   ar
    40    25    26   ar
    41    26    21   ar
    42    16     9    1
    43     8     3    1
    44    34    29   ar
    45    40    35   ar
    46    17    18    1
