@<TRIPOS>MOLECULE
*****
 34 37 0 0 0
SMALL
GASTEIGER

@<TRIPOS>ATOM
      1 C         140.3149  139.6063  163.8257 C.ar    1  UNL1        0.0685
      2 C         139.5002  138.4130  163.4226 C.ar    1  UNL1        0.0885
      3 C         138.7267  137.6492  164.4561 C.ar    1  UNL1        0.1263
      4 N         138.7678  138.0786  165.8928 N.ar    1  UNL1       -0.1633
      5 N         139.5824  139.2719  166.2958 N.ar    1  UNL1       -0.2270
      6 C         139.8133  139.9268  167.6254 C.ar    1  UNL1        0.1004
      7 C         140.7295  141.0954  167.4136 C.ar    1  UNL1        0.0209
      8 C         141.0649  141.1627  165.9531 C.ar    1  UNL1        0.0220
      9 C         140.3560  140.0357  165.2623 C.ar    1  UNL1        0.0961
     10 C         141.2236  142.0322  168.4758 C.ar    1  UNL1        0.0069
     11 C         142.5834  141.8340  169.0772 C.ar    1  UNL1        0.0209
     12 C         143.0774  142.7710  170.1394 C.ar    1  UNL1        0.1013
     13 N         142.2117  143.9060  170.6001 N.ar    1  UNL1       -0.2165
     14 C         140.8520  144.1042  169.9987 C.ar    1  UNL1        0.2223
     15 F         139.9863  145.2392  170.4593 F       1  UNL1       -0.1832
     16 C         140.3579  143.1673  168.9365 C.ar    1  UNL1        0.0497
     17 C         139.4591  137.9836  161.9859 C.2     1  UNL1        0.2456
     18 N         138.1409  137.8252  161.2879 N.am    1  UNL1       -0.3252
     19 O         140.7362  137.7127  161.2473 O.2     1  UNL1       -0.2703
     20 H         137.3027  138.0030  161.7728 H       1  UNL1        0.1453
     21 H         138.1139  137.5434  160.3450 H       1  UNL1        0.1453
     22 N         141.0884  140.3701  162.7921 N.pl3   1  UNL1       -0.3327
     23 H         140.6312  140.7181  161.9927 H       1  UNL1        0.1468
     24 C         141.9596  142.3378  162.1623 C.3     1  UNL1        0.0029
     25 C         143.3054  141.8528  162.6135 C.3     1  UNL1        0.0282
     26 C         143.7707  143.2034  162.1560 C.3     1  UNL1        0.0029
     27 C         142.5587  140.6036  162.9766 C.3     1  UNL1        0.0702
     28 C         143.5403  139.6289  163.5566 C.3     1  UNL1        0.0208
     29 C         144.8936  140.2757  163.5519 C.3     1  UNL1        0.0160
     30 C         144.7484  141.6501  162.9690 C.3     1  UNL1        0.0404
     31 C         144.9121  143.0431  162.4372 C.3     1  UNL1        0.0156
     32 N         146.2258  141.7387  163.2134 N.3     1  UNL1       -0.3231
     33 H         146.5546  140.8667  163.6281 H       1  UNL1        0.1188
     34 H         146.4194  142.5120  163.8497 H       1  UNL1        0.1188
@<TRIPOS>BOND
     1    24    25    1
     2    25    26    1
     3    25    27    1
     4    27    22    1
     5    22     1    1
     6     1     2   ar
     7     2    17    1
     8    17    18   am
     9    17    19    2
    10     2     3   ar
    11     3     4   ar
    12     4     5   ar
    13     5     6   ar
    14     6     7   ar
    15     7    10    1
    16    10    11   ar
    17    11    12   ar
    18    12    13   ar
    19    13    14   ar
    20    14    15    1
    21    14    16   ar
    22     7     8   ar
    23     8     9   ar
    24    27    28    1
    25    28    29    1
    26    29    30    1
    27    30    31    1
    28    30    32    1
    29    30    25    1
    30     9     1   ar
    31     9     5   ar
    32    16    10   ar
    33    22    23    1
    34    18    20    1
    35    18    21    1
    36    32    33    1
    37    32    34    1
@<TRIPOS>MOLECULE
*****
 34 37 0 0 0
SMALL
GASTEIGER

@<TRIPOS>ATOM
      1 C         141.1561  140.5248  167.5323 C.ar    1  UNL1        0.0685
      2 C         141.3941  140.0930  168.9490 C.ar    1  UNL1        0.0885
      3 C         142.4718  139.0968  169.2584 C.ar    1  UNL1        0.1263
      4 N         143.3117  138.5322  168.1511 N.ar    1  UNL1       -0.1633
      5 N         143.0738  138.9640  166.7345 N.ar    1  UNL1       -0.2270
      6 C         143.7373  138.5833  165.4443 C.ar    1  UNL1        0.1004
      7 C         143.0696  139.3443  164.3374 C.ar    1  UNL1        0.0209
      8 C         141.9934  140.1953  164.9436 C.ar    1  UNL1        0.0220
      9 C         141.9959  139.9603  166.4251 C.ar    1  UNL1        0.0961
     10 C         143.4171  139.2677  162.8803 C.ar    1  UNL1        0.0069
     11 C         144.0576  140.4407  162.1993 C.ar    1  UNL1        0.0209
     12 C         144.4051  140.3640  160.7421 C.ar    1  UNL1        0.1013
     13 N         144.1121  139.1143  159.9658 N.ar    1  UNL1       -0.2165
     14 C         143.4716  137.9413  160.6468 C.ar    1  UNL1        0.2223
     15 F         143.1785  136.6917  159.8707 F       1  UNL1       -0.1832
     16 C         143.1241  138.0180  162.1040 C.ar    1  UNL1        0.0497
     17 C         140.5541  140.6576  170.0562 C.2     1  UNL1        0.2456
     18 N         139.9895  139.7486  171.1073 N.am    1  UNL1       -0.3252
     19 O         140.2789  142.1310  170.1123 O.2     1  UNL1       -0.2703
     20 H         140.1701  138.7815  171.0705 H       1  UNL1        0.1453
     21 H         139.4382  140.1190  171.8340 H       1  UNL1        0.1453
     22 N         140.0783  141.5211  167.2229 N.pl3   1  UNL1       -0.3327
     23 H         139.9646  142.3162  167.7923 H       1  UNL1        0.1468
     24 C         139.5880  143.2648  165.9012 C.3     1  UNL1        0.0029
     25 C         138.7423  142.3532  165.0623 C.3     1  UNL1        0.0282
     26 C         138.4880  143.5909  164.2541 C.3     1  UNL1        0.0029
     27 C         139.1735  141.3060  166.0459 C.3     1  UNL1        0.0702
     28 C         138.5411  140.0060  165.6459 C.3     1  UNL1        0.0208
     29 C         137.7192  140.2497  164.4151 C.3     1  UNL1        0.0160
     30 C         137.8435  141.7004  164.0544 C.3     1  UNL1        0.0404
     31 C         137.7771  143.0746  163.4569 C.3     1  UNL1        0.0156
     32 N         136.9308  141.3348  162.9216 N.3     1  UNL1       -0.3231
     33 H         136.7052  140.3414  162.9737 H       1  UNL1        0.1188
     34 H         137.3939  141.5322  162.0345 H       1  UNL1        0.1188
@<TRIPOS>BOND
     1    24    25    1
     2    25    26    1
     3    25    27    1
     4    27    22    1
     5    22     1    1
     6     1     2   ar
     7     2    17    1
     8    17    18   am
     9    17    19    2
    10     2     3   ar
    11     3     4   ar
    12     4     5   ar
    13     5     6   ar
    14     6     7   ar
    15     7    10    1
    16    10    11   ar
    17    11    12   ar
    18    12    13   ar
    19    13    14   ar
    20    14    15    1
    21    14    16   ar
    22     7     8   ar
    23     8     9   ar
    24    27    28    1
    25    28    29    1
    26    29    30    1
    27    30    31    1
    28    30    32    1
    29    30    25    1
    30     9     1   ar
    31     9     5   ar
    32    16    10   ar
    33    22    23    1
    34    18    20    1
    35    18    21    1
    36    32    33    1
    37    32    34    1
@<TRIPOS>MOLECULE
*****
 34 37 0 0 0
SMALL
GASTEIGER

@<TRIPOS>ATOM
      1 C         140.7377  139.7224  163.5228 C.ar    1  UNL1        0.0685
      2 C         140.0891  138.6491  162.6997 C.ar    1  UNL1        0.0885
      3 C         139.0995  137.7152  163.3307 C.ar    1  UNL1        0.1263
      4 N         138.7584  137.8543  164.7848 N.ar    1  UNL1       -0.1633
      5 N         139.4070  138.9276  165.6079 N.ar    1  UNL1       -0.2270
      6 C         139.2700  139.3047  167.0532 C.ar    1  UNL1        0.1004
      7 C         140.1750  140.4718  167.3154 C.ar    1  UNL1        0.0209
      8 C         140.8713  140.8160  166.0322 C.ar    1  UNL1        0.0220
      9 C         140.3966  139.8616  164.9768 C.ar    1  UNL1        0.0961
     10 C         140.3526  141.1718  168.6301 C.ar    1  UNL1        0.0069
     11 C         140.5693  140.3737  169.8816 C.ar    1  UNL1        0.0209
     12 C         140.7469  141.0739  171.1962 C.ar    1  UNL1        0.1013
     13 N         140.7077  142.5720  171.2595 N.ar    1  UNL1       -0.2165
     14 C         140.4910  143.3701  170.0081 C.ar    1  UNL1        0.2223
     15 F         140.4518  144.8682  170.0713 F       1  UNL1       -0.1832
     16 C         140.3134  142.6700  168.6934 C.ar    1  UNL1        0.0497
     17 C         140.4302  138.5100  161.2456 C.2     1  UNL1        0.2456
     18 N         139.3368  138.4681  160.2195 N.am    1  UNL1       -0.3252
     19 O         141.8644  138.4127  160.8177 O.2     1  UNL1       -0.2703
     20 H         138.3954  138.5319  160.5005 H       1  UNL1        0.1453
     21 H         139.5607  138.3767  159.2652 H       1  UNL1        0.1453
     22 N         141.7273  140.6564  162.8918 N.pl3   1  UNL1       -0.3327
     23 H         142.5428  140.2991  162.4716 H       1  UNL1        0.1468
     24 C         143.3747  142.0326  163.5399 C.3     1  UNL1        0.0029
     25 C         142.4568  143.1950  163.3028 C.3     1  UNL1        0.0282
     26 C         143.6310  144.0119  163.7542 C.3     1  UNL1        0.0029
     27 C         141.4745  142.1350  162.9009 C.3     1  UNL1        0.0702
     28 C         140.1950  142.8131  162.5098 C.3     1  UNL1        0.0208
     29 C         140.3865  144.2921  162.6699 C.3     1  UNL1        0.0160
     30 C         141.7844  144.5281  163.1600 C.3     1  UNL1        0.0404
     31 C         143.0991  145.0664  163.6413 C.3     1  UNL1        0.0156
     32 N         141.3868  145.9739  163.1179 N.3     1  UNL1       -0.3231
     33 H         140.4223  146.0520  162.7952 H       1  UNL1        0.1188
     34 H         142.0013  146.4770  162.4777 H       1  UNL1        0.1188
@<TRIPOS>BOND
     1    24    25    1
     2    25    26    1
     3    25    27    1
     4    27    22    1
     5    22     1    1
     6     1     2   ar
     7     2    17    1
     8    17    18   am
     9    17    19    2
    10     2     3   ar
    11     3     4   ar
    12     4     5   ar
    13     5     6   ar
    14     6     7   ar
    15     7    10    1
    16    10    11   ar
    17    11    12   ar
    18    12    13   ar
    19    13    14   ar
    20    14    15    1
    21    14    16   ar
    22     7     8   ar
    23     8     9   ar
    24    27    28    1
    25    28    29    1
    26    29    30    1
    27    30    31    1
    28    30    32    1
    29    30    25    1
    30     9     1   ar
    31     9     5   ar
    32    16    10   ar
    33    22    23    1
    34    18    20    1
    35    18    21    1
    36    32    33    1
    37    32    34    1
@<TRIPOS>MOLECULE
*****
 34 37 0 0 0
SMALL
GASTEIGER

@<TRIPOS>ATOM
      1 C         139.3534  140.3653  163.4234 C.ar    1  UNL1        0.0685
      2 C         139.2423  139.0453  162.7196 C.ar    1  UNL1        0.0885
      3 C         139.8204  137.8108  163.3454 C.ar    1  UNL1        0.1263
      4 N         140.5097  137.8962  164.6750 N.ar    1  UNL1       -0.1633
      5 N         140.6208  139.2162  165.3787 N.ar    1  UNL1       -0.2270
      6 C         141.2389  139.6063  166.6885 C.ar    1  UNL1        0.1004
      7 C         141.0428  141.0821  166.8723 C.ar    1  UNL1        0.0209
      8 C         140.3034  141.6039  165.6760 C.ar    1  UNL1        0.0220
      9 C         140.0426  140.4508  164.7529 C.ar    1  UNL1        0.0961
     10 C         141.5048  141.8935  168.0462 C.ar    1  UNL1        0.0069
     11 C         140.5429  142.7978  168.7581 C.ar    1  UNL1        0.0209
     12 C         141.0051  143.6092  169.9320 C.ar    1  UNL1        0.1013
     13 N         142.4291  143.5163  170.3940 N.ar    1  UNL1       -0.2165
     14 C         143.3910  142.6120  169.6821 C.ar    1  UNL1        0.2223
     15 F         144.8151  142.5191  170.1440 F       1  UNL1       -0.1832
     16 C         142.9289  141.8006  168.5082 C.ar    1  UNL1        0.0497
     17 C         138.5530  138.9600  161.3901 C.2     1  UNL1        0.2456
     18 N         137.0586  138.8479  161.3259 N.am    1  UNL1       -0.3252
     19 O         139.3581  138.9867  160.1248 O.2     1  UNL1       -0.2703
     20 H         136.5302  138.8304  162.1564 H       1  UNL1        0.1453
     21 H         136.6062  138.7919  160.4533 H       1  UNL1        0.1453
     22 N         138.7752  141.5999  162.7976 N.pl3   1  UNL1       -0.3327
     23 H         137.8074  141.7722  162.8516 H       1  UNL1        0.1468
     24 C         138.4098  143.7968  163.0573 C.3     1  UNL1        0.0029
     25 C         139.5729  144.0675  162.1495 C.3     1  UNL1        0.0282
     26 C         139.2308  145.5064  162.3995 C.3     1  UNL1        0.0029
     27 C         139.6717  142.5720  162.0894 C.3     1  UNL1        0.0702
     28 C         140.8244  142.2192  161.1968 C.3     1  UNL1        0.0208
     29 C         141.4379  143.4967  160.7052 C.3     1  UNL1        0.0160
     30 C         140.6644  144.6390  161.2941 C.3     1  UNL1        0.0404
     31 C         140.0942  145.9585  161.7229 C.3     1  UNL1        0.0156
     32 N         141.6368  145.4863  160.5283 N.3     1  UNL1       -0.3231
     33 H         142.2903  144.8849  160.0267 H       1  UNL1        0.1188
     34 H         142.1519  146.0825  161.1760 H       1  UNL1        0.1188
@<TRIPOS>BOND
     1    24    25    1
     2    25    26    1
     3    25    27    1
     4    27    22    1
     5    22     1    1
     6     1     2   ar
     7     2    17    1
     8    17    18   am
     9    17    19    2
    10     2     3   ar
    11     3     4   ar
    12     4     5   ar
    13     5     6   ar
    14     6     7   ar
    15     7    10    1
    16    10    11   ar
    17    11    12   ar
    18    12    13   ar
    19    13    14   ar
    20    14    15    1
    21    14    16   ar
    22     7     8   ar
    23     8     9   ar
    24    27    28    1
    25    28    29    1
    26    29    30    1
    27    30    31    1
    28    30    32    1
    29    30    25    1
    30     9     1   ar
    31     9     5   ar
    32    16    10   ar
    33    22    23    1
    34    18    20    1
    35    18    21    1
    36    32    33    1
    37    32    34    1
@<TRIPOS>MOLECULE
*****
 34 37 0 0 0
SMALL
GASTEIGER

@<TRIPOS>ATOM
      1 C         142.1361  140.7544  167.2754 C.ar    1  UNL1        0.0685
      2 C         141.9709  140.7510  168.7662 C.ar    1  UNL1        0.0885
      3 C         141.0812  141.7634  169.4245 C.ar    1  UNL1        0.1263
      4 N         140.3566  142.7793  168.5919 N.ar    1  UNL1       -0.1633
      5 N         140.5219  142.7827  167.1010 N.ar    1  UNL1       -0.2270
      6 C         139.9399  143.6552  166.0287 C.ar    1  UNL1        0.1004
      7 C         140.4699  143.1820  164.7077 C.ar    1  UNL1        0.0209
      8 C         141.3795  142.0171  164.9636 C.ar    1  UNL1        0.0220
      9 C         141.4117  141.7703  166.4428 C.ar    1  UNL1        0.0961
     10 C         140.1470  143.7705  163.3662 C.ar    1  UNL1        0.0069
     11 C         140.4492  145.2131  163.0877 C.ar    1  UNL1        0.0209
     12 C         140.1263  145.8015  161.7462 C.ar    1  UNL1        0.1013
     13 N         139.5013  144.9473  160.6833 N.ar    1  UNL1       -0.2165
     14 C         139.1991  143.5047  160.9618 C.ar    1  UNL1        0.2223
     15 F         138.5741  142.6505  159.8990 F       1  UNL1       -0.1832
     16 C         139.5220  142.9163  162.3033 C.ar    1  UNL1        0.0497
     17 C         142.6954  139.7351  169.5988 C.2     1  UNL1        0.2456
     18 N         143.0406  140.0433  171.0256 N.am    1  UNL1       -0.3252
     19 O         143.0747  138.4112  169.0045 O.2     1  UNL1       -0.2703
     20 H         142.7916  140.9123  171.4156 H       1  UNL1        0.1453
     21 H         143.5161  139.3766  171.5721 H       1  UNL1        0.1453
     22 N         143.0259  139.7420  166.6171 N.pl3   1  UNL1       -0.3327
     23 H         143.9300  139.5776  166.9703 H       1  UNL1        0.1468
     24 C         144.2777  139.7302  164.7569 C.3     1  UNL1        0.0029
     25 C         143.2427  138.8648  164.1014 C.3     1  UNL1        0.0282
     26 C         144.1636  138.9305  162.9193 C.3     1  UNL1        0.0029
     27 C         142.5381  138.9800  165.4205 C.3     1  UNL1        0.0702
     28 C         141.2601  138.1996  165.3332 C.3     1  UNL1        0.0208
     29 C         141.1748  137.6020  163.9601 C.3     1  UNL1        0.0160
     30 C         142.4001  138.0131  163.1988 C.3     1  UNL1        0.0404
     31 C         143.4972  138.2568  162.2053 C.3     1  UNL1        0.0156
     32 N         141.7869  137.2124  162.0884 N.3     1  UNL1       -0.3231
     33 H         140.8994  136.8199  162.4024 H       1  UNL1        0.1188
     34 H         142.4190  136.4563  161.8253 H       1  UNL1        0.1188
@<TRIPOS>BOND
     1    24    25    1
     2    25    26    1
     3    25    27    1
     4    27    22    1
     5    22     1    1
     6     1     2   ar
     7     2    17    1
     8    17    18   am
     9    17    19    2
    10     2     3   ar
    11     3     4   ar
    12     4     5   ar
    13     5     6   ar
    14     6     7   ar
    15     7    10    1
    16    10    11   ar
    17    11    12   ar
    18    12    13   ar
    19    13    14   ar
    20    14    15    1
    21    14    16   ar
    22     7     8   ar
    23     8     9   ar
    24    27    28    1
    25    28    29    1
    26    29    30    1
    27    30    31    1
    28    30    32    1
    29    30    25    1
    30     9     1   ar
    31     9     5   ar
    32    16    10   ar
    33    22    23    1
    34    18    20    1
    35    18    21    1
    36    32    33    1
    37    32    34    1
@<TRIPOS>MOLECULE
*****
 34 37 0 0 0
SMALL
GASTEIGER

@<TRIPOS>ATOM
      1 C         143.1469  141.4922  163.6996 C.ar    1  UNL1        0.0685
      2 C         144.0172  140.7508  162.7286 C.ar    1  UNL1        0.0885
      3 C         144.6130  139.4291  163.1133 C.ar    1  UNL1        0.1263
      4 N         144.3387  138.8488  164.4691 N.ar    1  UNL1       -0.1633
      5 N         143.4684  139.5903  165.4401 N.ar    1  UNL1       -0.2270
      6 C         143.0241  139.2703  166.8365 C.ar    1  UNL1        0.1004
      7 C         142.1536  140.3943  167.3149 C.ar    1  UNL1        0.0209
      8 C         142.0599  141.4089  166.2141 C.ar    1  UNL1        0.0220
      9 C         142.8726  140.9120  165.0553 C.ar    1  UNL1        0.0961
     10 C         141.4927  140.4874  168.6582 C.ar    1  UNL1        0.0069
     11 C         142.3076  140.8168  169.8738 C.ar    1  UNL1        0.0209
     12 C         141.6466  140.9099  171.2171 C.ar    1  UNL1        0.1013
     13 N         140.1709  140.6735  171.3450 N.ar    1  UNL1       -0.2165
     14 C         139.3560  140.3440  170.1294 C.ar    1  UNL1        0.2223
     15 F         137.8803  140.1076  170.2572 F       1  UNL1       -0.1832
     16 C         140.0170  140.2510  168.7861 C.ar    1  UNL1        0.0497
     17 C         144.2915  141.3311  161.3728 C.2     1  UNL1        0.2456
     18 N         143.9336  140.5566  160.1391 N.am    1  UNL1       -0.3252
     19 O         144.9237  142.6858  161.2508 O.2     1  UNL1       -0.2703
     20 H         143.5187  139.6674  160.2193 H       1  UNL1        0.1453
     21 H         144.1137  140.9374  159.2493 H       1  UNL1        0.1453
     22 N         142.5510  142.8139  163.3149 N.pl3   1  UNL1       -0.3327
     23 H         143.0738  143.6407  163.4264 H       1  UNL1        0.1468
     24 C         141.1084  144.2997  164.1745 C.3     1  UNL1        0.0029
     25 C         140.0698  143.8030  163.2129 C.3     1  UNL1        0.0282
     26 C         139.1981  144.8339  163.8667 C.3     1  UNL1        0.0029
     27 C         141.1586  142.8760  162.7603 C.3     1  UNL1        0.0702
     28 C         140.6107  142.0218  161.6557 C.3     1  UNL1        0.0208
     29 C         139.1833  142.4209  161.4257 C.3     1  UNL1        0.0160
     30 C         138.8490  143.5218  162.3881 C.3     1  UNL1        0.0404
     31 C         138.2325  144.6115  163.2143 C.3     1  UNL1        0.0156
     32 N         137.4992  143.4684  161.7360 N.3     1  UNL1       -0.3231
     33 H         137.4997  142.7502  161.0117 H       1  UNL1        0.1188
     34 H         137.2881  144.3740  161.3167 H       1  UNL1        0.1188
@<TRIPOS>BOND
     1    24    25    1
     2    25    26    1
     3    25    27    1
     4    27    22    1
     5    22     1    1
     6     1     2   ar
     7     2    17    1
     8    17    18   am
     9    17    19    2
    10     2     3   ar
    11     3     4   ar
    12     4     5   ar
    13     5     6   ar
    14     6     7   ar
    15     7    10    1
    16    10    11   ar
    17    11    12   ar
    18    12    13   ar
    19    13    14   ar
    20    14    15    1
    21    14    16   ar
    22     7     8   ar
    23     8     9   ar
    24    27    28    1
    25    28    29    1
    26    29    30    1
    27    30    31    1
    28    30    32    1
    29    30    25    1
    30     9     1   ar
    31     9     5   ar
    32    16    10   ar
    33    22    23    1
    34    18    20    1
    35    18    21    1
    36    32    33    1
    37    32    34    1
@<TRIPOS>MOLECULE
*****
 34 37 0 0 0
SMALL
GASTEIGER

@<TRIPOS>ATOM
      1 C         139.2205  141.7406  163.6819 C.ar    1  UNL1        0.0685
      2 C         138.4627  140.9186  162.6819 C.ar    1  UNL1        0.0885
      3 C         137.9180  139.5768  163.0727 C.ar    1  UNL1        0.1263
      4 N         138.1309  139.0569  164.4635 N.ar    1  UNL1       -0.1633
      5 N         138.8887  139.8790  165.4635 N.ar    1  UNL1       -0.2270
      6 C         139.2534  139.6302  166.8971 C.ar    1  UNL1        0.1004
      7 C         140.0236  140.8183  167.3923 C.ar    1  UNL1        0.0209
      8 C         140.1349  141.8014  166.2648 C.ar    1  UNL1        0.0220
      9 C         139.4335  141.2208  165.0727 C.ar    1  UNL1        0.0961
     10 C         140.5841  140.9928  168.7727 C.ar    1  UNL1        0.0069
     11 C         139.9809  142.0011  169.7051 C.ar    1  UNL1        0.0209
     12 C         140.5415  142.1755  171.0855 C.ar    1  UNL1        0.1013
     13 N         141.7051  141.3417  171.5334 N.ar    1  UNL1       -0.2165
     14 C         142.3083  140.3334  170.6009 C.ar    1  UNL1        0.2223
     15 F         143.4719  139.4996  171.0488 F       1  UNL1       -0.1832
     16 C         141.7477  140.1590  169.2206 C.ar    1  UNL1        0.0497
     17 C         138.2497  141.4385  161.2910 C.2     1  UNL1        0.2456
     18 N         138.3275  140.5034  160.1208 N.am    1  UNL1       -0.3252
     19 O         137.9589  142.8933  161.0705 O.2     1  UNL1       -0.2703
     20 H         138.5184  139.5485  160.2656 H       1  UNL1        0.1453
     21 H         138.1877  140.8445  159.2079 H       1  UNL1        0.1453
     22 N         139.7652  143.0825  163.2911 N.pl3   1  UNL1       -0.3327
     23 H         139.1935  143.8818  163.3495 H       1  UNL1        0.1468
     24 C         141.0590  144.7036  164.1427 C.3     1  UNL1        0.0029
     25 C         142.1813  144.2258  163.2697 C.3     1  UNL1        0.0282
     26 C         142.9469  145.3452  163.9106 C.3     1  UNL1        0.0029
     27 C         141.1811  143.2063  162.8113 C.3     1  UNL1        0.0702
     28 C         141.8452  142.3324  161.7890 C.3     1  UNL1        0.0208
     29 C         143.2559  142.8119  161.6155 C.3     1  UNL1        0.0160
     30 C         143.4636  143.9820  162.5306 C.3     1  UNL1        0.0404
     31 C         143.9611  145.1524  163.3260 C.3     1  UNL1        0.0156
     32 N         144.8499  143.9829  161.9578 N.3     1  UNL1       -0.3231
     33 H         144.9368  143.2287  161.2767 H       1  UNL1        0.1188
     34 H         145.5276  143.8439  162.7074 H       1  UNL1        0.1188
@<TRIPOS>BOND
     1    24    25    1
     2    25    26    1
     3    25    27    1
     4    27    22    1
     5    22     1    1
     6     1     2   ar
     7     2    17    1
     8    17    18   am
     9    17    19    2
    10     2     3   ar
    11     3     4   ar
    12     4     5   ar
    13     5     6   ar
    14     6     7   ar
    15     7    10    1
    16    10    11   ar
    17    11    12   ar
    18    12    13   ar
    19    13    14   ar
    20    14    15    1
    21    14    16   ar
    22     7     8   ar
    23     8     9   ar
    24    27    28    1
    25    28    29    1
    26    29    30    1
    27    30    31    1
    28    30    32    1
    29    30    25    1
    30     9     1   ar
    31     9     5   ar
    32    16    10   ar
    33    22    23    1
    34    18    20    1
    35    18    21    1
    36    32    33    1
    37    32    34    1
@<TRIPOS>MOLECULE
*****
 34 37 0 0 0
SMALL
GASTEIGER

@<TRIPOS>ATOM
      1 C         140.6299  140.1146  167.2443 C.ar    1  UNL1        0.0685
      2 C         140.9588  139.8830  168.6893 C.ar    1  UNL1        0.0885
      3 C         142.2778  139.2792  169.0708 C.ar    1  UNL1        0.1263
      4 N         143.2680  138.9068  168.0073 N.ar    1  UNL1       -0.1633
      5 N         142.9390  139.1384  166.5622 N.ar    1  UNL1       -0.2270
      6 C         143.7097  138.8746  165.3027 C.ar    1  UNL1        0.1004
      7 C         142.8670  139.3154  164.1428 C.ar    1  UNL1        0.0209
      8 C         141.5755  139.8517  164.6854 C.ar    1  UNL1        0.0220
      9 C         141.6200  139.7423  166.1807 C.ar    1  UNL1        0.0961
     10 C         143.2487  139.2341  162.6944 C.ar    1  UNL1        0.0069
     11 C         143.2090  137.9152  161.9812 C.ar    1  UNL1        0.0209
     12 C         143.5907  137.8340  160.5328 C.ar    1  UNL1        0.1013
     13 N         144.0122  139.0718  159.7977 N.ar    1  UNL1       -0.2165
     14 C         144.0519  140.3907  160.5110 C.ar    1  UNL1        0.2223
     15 F         144.4733  141.6285  159.7760 F       1  UNL1       -0.1832
     16 C         143.6701  140.4719  161.9593 C.ar    1  UNL1        0.0497
     17 C         139.9687  140.2553  169.7528 C.2     1  UNL1        0.2456
     18 N         140.4133  141.0449  170.9482 N.am    1  UNL1       -0.3252
     19 O         138.5340  139.8381  169.6210 O.2     1  UNL1       -0.2703
     20 H         141.3550  141.3187  171.0347 H       1  UNL1        0.1453
     21 H         139.7635  141.2893  171.6462 H       1  UNL1        0.1453
     22 N         139.3109  140.7185  166.8628 N.pl3   1  UNL1       -0.3327
     23 H         138.4738  140.3281  167.2035 H       1  UNL1        0.1468
     24 C         138.0148  140.6523  165.0343 C.3     1  UNL1        0.0029
     25 C         138.4601  142.0462  164.7044 C.3     1  UNL1        0.0282
     26 C         137.5598  141.8837  163.5157 C.3     1  UNL1        0.0029
     27 C         139.2673  141.9172  165.9620 C.3     1  UNL1        0.0702
     28 C         140.0233  143.1974  166.1609 C.3     1  UNL1        0.0208
     29 C         139.6833  144.1175  165.0262 C.3     1  UNL1        0.0160
     30 C         138.7172  143.4060  164.1260 C.3     1  UNL1        0.0404
     31 C         137.7631  142.9593  163.0582 C.3     1  UNL1        0.0156
     32 N         138.7748  144.6725  163.3243 N.3     1  UNL1       -0.3231
     33 H         139.4068  145.3329  163.7769 H       1  UNL1        0.1188
     34 H         137.8418  145.0805  163.2656 H       1  UNL1        0.1188
@<TRIPOS>BOND
     1    24    25    1
     2    25    26    1
     3    25    27    1
     4    27    22    1
     5    22     1    1
     6     1     2   ar
     7     2    17    1
     8    17    18   am
     9    17    19    2
    10     2     3   ar
    11     3     4   ar
    12     4     5   ar
    13     5     6   ar
    14     6     7   ar
    15     7    10    1
    16    10    11   ar
    17    11    12   ar
    18    12    13   ar
    19    13    14   ar
    20    14    15    1
    21    14    16   ar
    22     7     8   ar
    23     8     9   ar
    24    27    28    1
    25    28    29    1
    26    29    30    1
    27    30    31    1
    28    30    32    1
    29    30    25    1
    30     9     1   ar
    31     9     5   ar
    32    16    10   ar
    33    22    23    1
    34    18    20    1
    35    18    21    1
    36    32    33    1
    37    32    34    1
@<TRIPOS>MOLECULE
*****
 34 37 0 0 0
SMALL
GASTEIGER

@<TRIPOS>ATOM
      1 C         140.5306  140.2696  167.3545 C.ar    1  UNL1        0.0685
      2 C         140.5506  140.5559  168.8268 C.ar    1  UNL1        0.0885
      3 C         141.5959  141.4664  169.3997 C.ar    1  UNL1        0.1263
      4 N         142.6213  142.0907  168.5003 N.ar    1  UNL1       -0.1633
      5 N         142.6014  141.8044  167.0281 N.ar    1  UNL1       -0.2270
      6 C         143.4765  142.2713  165.9029 C.ar    1  UNL1        0.1004
      7 C         142.9721  141.6493  164.6346 C.ar    1  UNL1        0.0209
      8 C         141.7851  140.7980  164.9759 C.ar    1  UNL1        0.0220
      9 C         141.5560  140.8938  166.4552 C.ar    1  UNL1        0.0961
     10 C         143.5526  141.8444  163.2653 C.ar    1  UNL1        0.0069
     11 C         144.1391  143.1705  162.8812 C.ar    1  UNL1        0.0209
     12 C         144.7196  143.3655  161.5119 C.ar    1  UNL1        0.1013
     13 N         144.7136  142.2345  160.5266 N.ar    1  UNL1       -0.2165
     14 C         144.1271  140.9084  160.9106 C.ar    1  UNL1        0.2223
     15 F         144.1211  139.7774  159.9255 F       1  UNL1       -0.1832
     16 C         143.5466  140.7134  162.2800 C.ar    1  UNL1        0.0497
     17 C         139.5251  139.9317  169.7262 C.2     1  UNL1        0.2456
     18 N         139.8707  139.6147  171.1510 N.am    1  UNL1       -0.3252
     19 O         138.1542  139.6244  169.2008 O.2     1  UNL1       -0.2703
     20 H         140.7705  139.8163  171.4958 H       1  UNL1        0.1453
     21 H         139.1977  139.2049  171.7413 H       1  UNL1        0.1453
     22 N         139.4853  139.3591  166.7816 N.pl3   1  UNL1       -0.3327
     23 H         139.2088  138.5542  167.2765 H       1  UNL1        0.1468
     24 C         139.5306  137.8046  165.1663 C.3     1  UNL1        0.0029
     25 C         138.8008  138.7590  164.2683 C.3     1  UNL1        0.0282
     26 C         138.8930  137.6435  163.2698 C.3     1  UNL1        0.0029
     27 C         138.8612  139.6750  165.4546 C.3     1  UNL1        0.0702
     28 C         138.1879  140.9623  165.0811 C.3     1  UNL1        0.0208
     29 C         137.7114  140.8419  163.6639 C.3     1  UNL1        0.0160
     30 C         138.0902  139.4802  163.1617 C.3     1  UNL1        0.0404
     31 C         138.3309  138.2139  162.3944 C.3     1  UNL1        0.0156
     32 N         137.4299  139.9367  161.8945 N.3     1  UNL1       -0.3231
     33 H         137.0806  140.8872  162.0165 H       1  UNL1        0.1188
     34 H         136.6525  139.3146  161.6730 H       1  UNL1        0.1188
@<TRIPOS>BOND
     1    24    25    1
     2    25    26    1
     3    25    27    1
     4    27    22    1
     5    22     1    1
     6     1     2   ar
     7     2    17    1
     8    17    18   am
     9    17    19    2
    10     2     3   ar
    11     3     4   ar
    12     4     5   ar
    13     5     6   ar
    14     6     7   ar
    15     7    10    1
    16    10    11   ar
    17    11    12   ar
    18    12    13   ar
    19    13    14   ar
    20    14    15    1
    21    14    16   ar
    22     7     8   ar
    23     8     9   ar
    24    27    28    1
    25    28    29    1
    26    29    30    1
    27    30    31    1
    28    30    32    1
    29    30    25    1
    30     9     1   ar
    31     9     5   ar
    32    16    10   ar
    33    22    23    1
    34    18    20    1
    35    18    21    1
    36    32    33    1
    37    32    34    1
