@<TRIPOS>MOLECULE
*****
 23 25 0 0 0
SMALL
GASTEIGER

@<TRIPOS>ATOM
      1 N         139.6396  142.6902  165.7498 N.ar    1  UNL1       -0.2068
      2 C         138.9829  141.5293  165.0635 C.ar    1  UNL1        0.1378
      3 C         137.9411  142.0714  164.1302 C.ar    1  UNL1        0.1713
      4 N         137.9541  143.5673  164.2397 N.ar    1  UNL1       -0.1135
      5 N         139.0038  143.9498  165.2407 N.ar    1  UNL1       -0.0583
      6 CL        144.0376  142.3545  169.8173 Cl      1  UNL1       -0.0822
      7 C         142.9381  142.4384  168.8004 C.ar    1  UNL1        0.0586
      8 C         141.5229  142.6645  169.2430 C.ar    1  UNL1        0.0130
      9 C         140.4234  142.7484  168.2261 C.ar    1  UNL1        0.0209
     10 C         140.7391  142.6063  166.7667 C.ar    1  UNL1        0.0951
     11 C         142.1544  142.3802  166.3241 C.ar    1  UNL1        0.0762
     12 CL        142.4702  142.2381  164.8646 Cl      1  UNL1       -0.0806
     13 C         143.2539  142.2963  167.3410 C.ar    1  UNL1        0.0243
     14 N         137.0441  141.2600  163.2432 N.pl3   1  UNL1       -0.3142
     15 H         136.0909  141.1584  163.4677 H       1  UNL1        0.1483
     16 C         137.5992  140.6034  162.0141 C.3     1  UNL1        0.1058
     17 C         137.7675  139.1135  161.9708 C.3     1  UNL1        0.0936
     18 N         138.9107  138.4665  162.6953 N.3     1  UNL1       -0.2712
     19 C         138.7743  138.1115  164.1462 C.3     1  UNL1        0.0721
     20 C         139.9174  137.4645  164.8706 C.3     1  UNL1        0.0174
     21 C         141.1968  137.1726  164.1442 C.3     1  UNL1        0.0029
     22 C         141.3331  137.5277  162.6932 C.3     1  UNL1        0.0174
     23 C         140.1901  138.1746  161.9687 C.3     1  UNL1        0.0721
@<TRIPOS>BOND
     1     6     7    1
     2     7     8   ar
     3     8     9   ar
     4     9    10   ar
     5    10     1    1
     6     1     2   ar
     7     2     3   ar
     8     3    14    1
     9    14    16    1
    10    16    17    1
    11    17    18    1
    12    18    19    1
    13    19    20    1
    14    20    21    1
    15    21    22    1
    16    22    23    1
    17     3     4   ar
    18     4     5   ar
    19    10    11   ar
    20    11    12    1
    21    11    13   ar
    22    13     7   ar
    23     5     1   ar
    24    23    18    1
    25    14    15    1
@<TRIPOS>MOLECULE
*****
 23 25 0 0 0
SMALL
GASTEIGER

@<TRIPOS>ATOM
      1 N         143.3815  142.7379  163.4252 N.ar    1  UNL1       -0.2068
      2 C         142.5017  142.9133  162.2231 C.ar    1  UNL1        0.1378
      3 C         142.6675  144.3196  161.7284 C.ar    1  UNL1        0.1713
      4 N         143.6498  145.0135  162.6249 N.ar    1  UNL1       -0.1135
      5 N         144.0910  144.0360  163.6736 N.ar    1  UNL1       -0.0583
      6 CL        143.9608  137.7248  166.6707 Cl      1  UNL1       -0.0822
      7 C         143.8160  138.9781  165.8593 C.ar    1  UNL1        0.0586
      8 C         144.7008  139.2081  164.6701 C.ar    1  UNL1        0.0130
      9 C         144.5559  140.4614  163.8588 C.ar    1  UNL1        0.0209
     10 C         143.5263  141.4847  164.2366 C.ar    1  UNL1        0.0951
     11 C         142.6415  141.2546  165.4257 C.ar    1  UNL1        0.0762
     12 CL        141.6118  142.2779  165.8036 Cl      1  UNL1       -0.0806
     13 C         142.7863  140.0013  166.2371 C.ar    1  UNL1        0.0243
     14 N         141.9729  144.9257  160.5451 N.pl3   1  UNL1       -0.3142
     15 H         142.4349  144.9793  159.6774 H       1  UNL1        0.1483
     16 C         140.5745  145.4501  160.6839 C.3     1  UNL1        0.1058
     17 C         140.0356  145.7996  162.0394 C.3     1  UNL1        0.0936
     18 N         139.2656  144.7804  162.8259 N.3     1  UNL1       -0.2712
     19 C         139.1651  144.9035  164.3174 C.3     1  UNL1        0.0721
     20 C         138.3951  143.8843  165.1038 C.3     1  UNL1        0.0174
     21 C         137.7255  142.7422  164.3987 C.3     1  UNL1        0.0029
     22 C         137.8260  142.6192  162.9071 C.3     1  UNL1        0.0174
     23 C         138.5960  143.6383  162.1207 C.3     1  UNL1        0.0721
@<TRIPOS>BOND
     1     6     7    1
     2     7     8   ar
     3     8     9   ar
     4     9    10   ar
     5    10     1    1
     6     1     2   ar
     7     2     3   ar
     8     3    14    1
     9    14    16    1
    10    16    17    1
    11    17    18    1
    12    18    19    1
    13    19    20    1
    14    20    21    1
    15    21    22    1
    16    22    23    1
    17     3     4   ar
    18     4     5   ar
    19    10    11   ar
    20    11    12    1
    21    11    13   ar
    22    13     7   ar
    23     5     1   ar
    24    23    18    1
    25    14    15    1
@<TRIPOS>MOLECULE
*****
 23 25 0 0 0
SMALL
GASTEIGER

@<TRIPOS>ATOM
      1 N         139.8687  140.2732  167.8308 N.ar    1  UNL1       -0.2068
      2 C         139.9401  140.0178  166.3545 C.ar    1  UNL1        0.1378
      3 C         138.8228  139.0855  165.9907 C.ar    1  UNL1        0.1713
      4 N         138.0608  138.7646  167.2422 N.ar    1  UNL1       -0.1135
      5 N         138.7072  139.4986  168.3795 N.ar    1  UNL1       -0.0583
      6 CL        143.5777  143.7774  170.9874 Cl      1  UNL1       -0.0822
      7 C         142.6504  142.9013  170.1982 C.ar    1  UNL1        0.0586
      8 C         141.2757  143.3882  169.8474 C.ar    1  UNL1        0.0130
      9 C         140.3485  142.5121  169.0583 C.ar    1  UNL1        0.0209
     10 C         140.7959  141.1492  168.6200 C.ar    1  UNL1        0.0951
     11 C         142.1706  140.6623  168.9708 C.ar    1  UNL1        0.0762
     12 CL        142.6181  139.2993  168.5325 Cl      1  UNL1       -0.0806
     13 C         143.0979  141.5384  169.7599 C.ar    1  UNL1        0.0243
     14 N         138.5205  138.5653  164.6166 N.pl3   1  UNL1       -0.3142
     15 H         138.2677  137.6221  164.4919 H       1  UNL1        0.1483
     16 C         138.6035  139.4824  163.4325 C.3     1  UNL1        0.1058
     17 C         137.8052  140.7521  163.4099 C.3     1  UNL1        0.0936
     18 N         138.4576  142.0546  163.7679 N.3     1  UNL1       -0.2712
     19 C         139.8684  142.3295  163.3393 C.3     1  UNL1        0.0721
     20 C         140.5207  143.6320  163.6973 C.3     1  UNL1        0.0174
     21 C         139.7622  144.6595  164.4839 C.3     1  UNL1        0.0029
     22 C         138.3512  144.3845  164.9125 C.3     1  UNL1        0.0174
     23 C         137.6989  143.0821  164.5545 C.3     1  UNL1        0.0721
@<TRIPOS>BOND
     1     6     7    1
     2     7     8   ar
     3     8     9   ar
     4     9    10   ar
     5    10     1    1
     6     1     2   ar
     7     2     3   ar
     8     3    14    1
     9    14    16    1
    10    16    17    1
    11    17    18    1
    12    18    19    1
    13    19    20    1
    14    20    21    1
    15    21    22    1
    16    22    23    1
    17     3     4   ar
    18     4     5   ar
    19    10    11   ar
    20    11    12    1
    21    11    13   ar
    22    13     7   ar
    23     5     1   ar
    24    23    18    1
    25    14    15    1
@<TRIPOS>MOLECULE
*****
 23 25 0 0 0
SMALL
GASTEIGER

@<TRIPOS>ATOM
      1 N         143.5034  142.3578  164.6402 N.ar    1  UNL1       -0.2068
      2 C         142.5328  143.2384  163.9105 C.ar    1  UNL1        0.1378
      3 C         143.2482  143.8476  162.7413 C.ar    1  UNL1        0.1713
      4 N         144.6609  143.3435  162.7483 N.ar    1  UNL1       -0.1135
      5 N         144.8186  142.4227  163.9218 N.ar    1  UNL1       -0.0583
      6 CL        142.3307  139.1403  169.5669 Cl      1  UNL1       -0.0822
      7 C         142.6239  139.9447  168.3352 C.ar    1  UNL1        0.0586
      8 C         142.7940  141.4317  168.4335 C.ar    1  UNL1        0.0130
      9 C         143.0872  142.2361  167.2018 C.ar    1  UNL1        0.0209
     10 C         143.2102  141.5534  165.8718 C.ar    1  UNL1        0.0951
     11 C         143.0401  140.0664  165.7736 C.ar    1  UNL1        0.0762
     12 CL        143.1631  139.3836  164.4436 Cl      1  UNL1       -0.0806
     13 C         142.7469  139.2620  167.0053 C.ar    1  UNL1        0.0243
     14 N         142.6549  144.7947  161.7407 N.pl3   1  UNL1       -0.3142
     15 H         143.0297  145.6991  161.6365 H       1  UNL1        0.1483
     16 C         141.4906  144.3638  160.8988 C.3     1  UNL1        0.1058
     17 C         140.1225  144.9141  161.1731 C.3     1  UNL1        0.0936
     18 N         139.3026  144.3585  162.2999 N.3     1  UNL1       -0.2712
     19 C         138.4453  143.1480  162.0776 C.3     1  UNL1        0.0721
     20 C         137.6256  142.5925  163.2044 C.3     1  UNL1        0.0174
     21 C         137.6632  143.2475  164.5532 C.3     1  UNL1        0.0029
     22 C         138.5206  144.4581  164.7754 C.3     1  UNL1        0.0174
     23 C         139.3403  145.0136  163.6487 C.3     1  UNL1        0.0721
@<TRIPOS>BOND
     1     6     7    1
     2     7     8   ar
     3     8     9   ar
     4     9    10   ar
     5    10     1    1
     6     1     2   ar
     7     2     3   ar
     8     3    14    1
     9    14    16    1
    10    16    17    1
    11    17    18    1
    12    18    19    1
    13    19    20    1
    14    20    21    1
    15    21    22    1
    16    22    23    1
    17     3     4   ar
    18     4     5   ar
    19    10    11   ar
    20    11    12    1
    21    11    13   ar
    22    13     7   ar
    23     5     1   ar
    24    23    18    1
    25    14    15    1
@<TRIPOS>MOLECULE
*****
 23 25 0 0 0
SMALL
GASTEIGER

@<TRIPOS>ATOM
      1 N         138.7205  139.0846  165.7123 N.ar    1  UNL1       -0.2068
      2 C         139.5761  139.9259  166.6124 C.ar    1  UNL1        0.1378
      3 C         139.0573  139.7820  168.0125 C.ar    1  UNL1        0.1713
      4 N         137.8810  138.8518  167.9776 N.ar    1  UNL1       -0.1135
      5 N         137.6729  138.4208  166.5560 N.ar    1  UNL1       -0.0583
      6 CL        139.3739  138.4808  159.7786 Cl      1  UNL1       -0.0822
      7 C         139.2106  138.6318  161.2620 C.ar    1  UNL1        0.0586
      8 C         138.2052  139.6000  161.8112 C.ar    1  UNL1        0.0130
      9 C         138.0418  139.7510  163.2946 C.ar    1  UNL1        0.0209
     10 C         138.8839  138.9337  164.2289 C.ar    1  UNL1        0.0951
     11 C         139.8893  137.9654  163.6797 C.ar    1  UNL1        0.0762
     12 CL        140.7314  137.1480  164.6140 Cl      1  UNL1       -0.0806
     13 C         140.0526  137.8145  162.1963 C.ar    1  UNL1        0.0243
     14 N         139.6165  140.4509  169.2331 N.pl3   1  UNL1       -0.3142
     15 H         139.2005  141.2740  169.5776 H       1  UNL1        0.1483
     16 C         140.8096  139.8657  169.9288 C.3     1  UNL1        0.1058
     17 C         142.1889  140.3415  169.5807 C.3     1  UNL1        0.0936
     18 N         142.6202  140.4053  168.1453 N.3     1  UNL1       -0.2712
     19 C         142.9225  139.1415  167.3962 C.3     1  UNL1        0.0721
     20 C         143.3538  139.2054  165.9609 C.3     1  UNL1        0.0174
     21 C         143.4828  140.5330  165.2749 C.3     1  UNL1        0.0029
     22 C         143.1805  141.7968  166.0241 C.3     1  UNL1        0.0174
     23 C         142.7492  141.7330  167.4593 C.3     1  UNL1        0.0721
@<TRIPOS>BOND
     1     6     7    1
     2     7     8   ar
     3     8     9   ar
     4     9    10   ar
     5    10     1    1
     6     1     2   ar
     7     2     3   ar
     8     3    14    1
     9    14    16    1
    10    16    17    1
    11    17    18    1
    12    18    19    1
    13    19    20    1
    14    20    21    1
    15    21    22    1
    16    22    23    1
    17     3     4   ar
    18     4     5   ar
    19    10    11   ar
    20    11    12    1
    21    11    13   ar
    22    13     7   ar
    23     5     1   ar
    24    23    18    1
    25    14    15    1
@<TRIPOS>MOLECULE
*****
 23 25 0 0 0
SMALL
GASTEIGER

@<TRIPOS>ATOM
      1 N         139.6239  139.2285  165.1783 N.ar    1  UNL1       -0.2068
      2 C         138.9797  140.2868  164.3328 C.ar    1  UNL1        0.1378
      3 C         138.3053  139.6097  163.1767 C.ar    1  UNL1        0.1713
      4 N         138.5325  138.1328  163.3077 N.ar    1  UNL1       -0.1135
      5 N         139.3474  137.8972  164.5448 N.ar    1  UNL1       -0.0583
      6 CL        142.7560  140.1571  170.2110 Cl      1  UNL1       -0.0822
      7 C         141.9729  139.9250  168.9528 C.ar    1  UNL1        0.0586
      8 C         140.4833  140.1010  168.9533 C.ar    1  UNL1        0.0130
      9 C         139.7003  139.8688  167.6951 C.ar    1  UNL1        0.0209
     10 C         140.4069  139.4607  166.4365 C.ar    1  UNL1        0.0951
     11 C         141.8965  139.2847  166.4361 C.ar    1  UNL1        0.0762
     12 CL        142.6032  138.8765  165.1774 Cl      1  UNL1       -0.0806
     13 C         142.6795  139.5168  167.6942 C.ar    1  UNL1        0.0243
     14 N         137.5382  140.2900  162.0818 N.pl3   1  UNL1       -0.3142
     15 H         136.5588  140.1998  162.0375 H       1  UNL1        0.1483
     16 C         138.2633  141.1076  161.0543 C.3     1  UNL1        0.1058
     17 C         138.2381  142.6053  161.1335 C.3     1  UNL1        0.0936
     18 N         138.6281  143.2957  162.4069 N.3     1  UNL1       -0.2712
     19 C         140.0623  143.6586  162.6544 C.3     1  UNL1        0.0721
     20 C         140.4522  144.3490  163.9278 C.3     1  UNL1        0.0174
     21 C         139.4080  144.6763  164.9536 C.3     1  UNL1        0.0029
     22 C         137.9737  144.3133  164.7060 C.3     1  UNL1        0.0174
     23 C         137.5838  143.6230  163.4327 C.3     1  UNL1        0.0721
@<TRIPOS>BOND
     1     6     7    1
     2     7     8   ar
     3     8     9   ar
     4     9    10   ar
     5    10     1    1
     6     1     2   ar
     7     2     3   ar
     8     3    14    1
     9    14    16    1
    10    16    17    1
    11    17    18    1
    12    18    19    1
    13    19    20    1
    14    20    21    1
    15    21    22    1
    16    22    23    1
    17     3     4   ar
    18     4     5   ar
    19    10    11   ar
    20    11    12    1
    21    11    13   ar
    22    13     7   ar
    23     5     1   ar
    24    23    18    1
    25    14    15    1
@<TRIPOS>MOLECULE
*****
 23 25 0 0 0
SMALL
GASTEIGER

@<TRIPOS>ATOM
      1 N         142.9077  141.9995  163.4974 N.ar    1  UNL1       -0.2068
      2 C         142.7788  140.8627  162.5273 C.ar    1  UNL1        0.1378
      3 C         144.1581  140.3670  162.2082 C.ar    1  UNL1        0.1713
      4 N         145.1394  141.1974  162.9812 N.ar    1  UNL1       -0.1135
      5 N         144.3666  142.2063  163.7779 N.ar    1  UNL1       -0.0583
      6 CL        138.3820  145.1638  165.8437 Cl      1  UNL1       -0.0822
      7 C         139.5134  144.3727  165.2571 C.ar    1  UNL1        0.0586
      8 C         140.0110  143.1431  165.9573 C.ar    1  UNL1        0.0130
      9 C         141.1424  142.3520  165.3708 C.ar    1  UNL1        0.0209
     10 C         141.7763  142.7906  164.0840 C.ar    1  UNL1        0.0951
     11 C         141.2786  144.0202  163.3838 C.ar    1  UNL1        0.0762
     12 CL        141.9125  144.4589  162.0969 Cl      1  UNL1       -0.0806
     13 C         140.1472  144.8113  163.9703 C.ar    1  UNL1        0.0243
     14 N         144.4966  139.2389  161.2793 N.pl3   1  UNL1       -0.3142
     15 H         145.1527  139.3751  160.5581 H       1  UNL1        0.1483
     16 C         143.8355  137.9033  161.4494 C.3     1  UNL1        0.1058
     17 C         142.4455  137.6829  160.9303 C.3     1  UNL1        0.0936
     18 N         141.2793  137.7125  161.8733 N.3     1  UNL1       -0.2712
     19 C         139.9074  138.0345  161.3595 C.3     1  UNL1        0.0721
     20 C         138.7412  138.0641  162.3026 C.3     1  UNL1        0.0174
     21 C         138.9470  137.7717  163.7593 C.3     1  UNL1        0.0029
     22 C         140.3191  137.4498  164.2731 C.3     1  UNL1        0.0174
     23 C         141.4852  137.4202  163.3301 C.3     1  UNL1        0.0721
@<TRIPOS>BOND
     1     6     7    1
     2     7     8   ar
     3     8     9   ar
     4     9    10   ar
     5    10     1    1
     6     1     2   ar
     7     2     3   ar
     8     3    14    1
     9    14    16    1
    10    16    17    1
    11    17    18    1
    12    18    19    1
    13    19    20    1
    14    20    21    1
    15    21    22    1
    16    22    23    1
    17     3     4   ar
    18     4     5   ar
    19    10    11   ar
    20    11    12    1
    21    11    13   ar
    22    13     7   ar
    23     5     1   ar
    24    23    18    1
    25    14    15    1
@<TRIPOS>MOLECULE
*****
 23 25 0 0 0
SMALL
GASTEIGER

@<TRIPOS>ATOM
      1 N         138.9641  142.7940  164.2346 N.ar    1  UNL1       -0.2068
      2 C         139.6153  142.6768  162.8884 C.ar    1  UNL1        0.1378
      3 C         138.8753  143.5689  161.9362 C.ar    1  UNL1        0.1713
      4 N         137.7668  144.2376  162.6939 N.ar    1  UNL1       -0.1135
      5 N         137.8217  143.7586  164.1144 N.ar    1  UNL1       -0.0583
      6 CL        140.6355  139.9109  169.2239 Cl      1  UNL1       -0.0822
      7 C         140.2177  140.6317  167.9766 C.ar    1  UNL1        0.0586
      8 C         140.6686  142.0424  167.7388 C.ar    1  UNL1        0.0130
      9 C         140.2507  142.7632  166.4915 C.ar    1  UNL1        0.0209
     10 C         139.3820  142.0733  165.4819 C.ar    1  UNL1        0.0951
     11 C         138.9311  140.6626  165.7197 C.ar    1  UNL1        0.0762
     12 CL        138.0622  139.9726  164.7101 Cl      1  UNL1       -0.0806
     13 C         139.3489  139.9418  166.9670 C.ar    1  UNL1        0.0243
     14 N         139.1889  143.7591  160.4817 N.pl3   1  UNL1       -0.3142
     15 H         138.6851  143.2583  159.8000 H       1  UNL1        0.1483
     16 C         140.2699  144.7121  160.0659 C.3     1  UNL1        0.1058
     17 C         141.7061  144.2813  160.1071 C.3     1  UNL1        0.0936
     18 N         142.4578  144.2997  161.4052 N.3     1  UNL1       -0.2712
     19 C         143.6665  143.4299  161.5843 C.3     1  UNL1        0.0721
     20 C         144.4181  143.4484  162.8824 C.3     1  UNL1        0.0174
     21 C         143.9608  144.3366  164.0012 C.3     1  UNL1        0.0029
     22 C         142.7520  145.2065  163.8220 C.3     1  UNL1        0.0174
     23 C         142.0005  145.1880  162.5240 C.3     1  UNL1        0.0721
@<TRIPOS>BOND
     1     6     7    1
     2     7     8   ar
     3     8     9   ar
     4     9    10   ar
     5    10     1    1
     6     1     2   ar
     7     2     3   ar
     8     3    14    1
     9    14    16    1
    10    16    17    1
    11    17    18    1
    12    18    19    1
    13    19    20    1
    14    20    21    1
    15    21    22    1
    16    22    23    1
    17     3     4   ar
    18     4     5   ar
    19    10    11   ar
    20    11    12    1
    21    11    13   ar
    22    13     7   ar
    23     5     1   ar
    24    23    18    1
    25    14    15    1
@<TRIPOS>MOLECULE
*****
 23 25 0 0 0
SMALL
GASTEIGER

@<TRIPOS>ATOM
      1 N         142.0941  139.7411  167.0237 N.ar    1  UNL1       -0.2068
      2 C         141.7319  139.6366  165.5718 C.ar    1  UNL1        0.1378
      3 C         142.6851  138.6764  164.9242 C.ar    1  UNL1        0.1713
      4 N         143.6364  138.1874  165.9758 N.ar    1  UNL1       -0.1135
      5 N         143.2711  138.8455  167.2733 N.ar    1  UNL1       -0.0583
      6 CL        139.3215  143.1441  171.1142 Cl      1  UNL1       -0.0822
      7 C         140.0147  142.2934  170.0916 C.ar    1  UNL1        0.0586
      8 C         139.4292  140.9705  169.6952 C.ar    1  UNL1        0.0130
      9 C         140.1224  140.1197  168.6726 C.ar    1  UNL1        0.0209
     10 C         141.4009  140.5919  168.0463 C.ar    1  UNL1        0.0951
     11 C         141.9864  141.9148  168.4426 C.ar    1  UNL1        0.0762
     12 CL        143.2650  142.3870  167.8164 Cl      1  UNL1       -0.0806
     13 C         141.2932  142.7655  169.4653 C.ar    1  UNL1        0.0243
     14 N         142.6866  138.2755  163.4788 N.pl3   1  UNL1       -0.3142
     15 H         141.8953  137.8392  163.0881 H       1  UNL1        0.1483
     16 C         143.8939  138.5396  162.6286 C.3     1  UNL1        0.1058
     17 C         144.0873  139.8870  161.9985 C.3     1  UNL1        0.0936
     18 N         143.9921  141.1275  162.8367 N.3     1  UNL1       -0.2712
     19 C         145.1110  141.4919  163.7667 C.3     1  UNL1        0.0721
     20 C         145.0157  142.7324  164.6048 C.3     1  UNL1        0.0174
     21 C         143.8015  143.6082  164.5129 C.3     1  UNL1        0.0029
     22 C         142.6825  143.2437  163.5828 C.3     1  UNL1        0.0174
     23 C         142.7778  142.0033  162.7447 C.3     1  UNL1        0.0721
@<TRIPOS>BOND
     1     6     7    1
     2     7     8   ar
     3     8     9   ar
     4     9    10   ar
     5    10     1    1
     6     1     2   ar
     7     2     3   ar
     8     3    14    1
     9    14    16    1
    10    16    17    1
    11    17    18    1
    12    18    19    1
    13    19    20    1
    14    20    21    1
    15    21    22    1
    16    22    23    1
    17     3     4   ar
    18     4     5   ar
    19    10    11   ar
    20    11    12    1
    21    11    13   ar
    22    13     7   ar
    23     5     1   ar
    24    23    18    1
    25    14    15    1
