@<TRIPOS>MOLECULE
*****
 37 41 0 0 0
SMALL
GASTEIGER

@<TRIPOS>ATOM
      1 N         144.6461  141.4394  164.2029 N.3     1  UNL1       -0.2653
      2 C         144.2451  140.0027  164.3602 C.3     1  UNL1        0.1036
      3 C         143.3877  139.5859  165.5183 C.3     1  UNL1        0.1470
      4 C         142.5302  139.1690  166.6764 C.3     1  UNL1        0.1035
      5 N         142.0740  140.1890  167.6771 N.3     1  UNL1       -0.2673
      6 C         142.4751  141.6259  167.5197 C.3     1  UNL1        0.1035
      7 C         143.3325  142.0426  166.3616 C.3     1  UNL1        0.1470
      8 C         144.1899  142.4594  165.2036 C.3     1  UNL1        0.1036
      9 O         142.9314  140.6059  166.5190 O.3     1  UNL1       -0.3530
     10 C         145.5036  141.8563  163.0447 C.3     1  UNL1        0.1202
     11 C         144.9132  141.9467  161.6688 C.3     1  UNL1        0.2228
     12 O         144.0673  143.1267  161.2917 O.3     1  UNL1       -0.4717
     13 C         140.6211  144.3540  163.9123 C.ar    1  UNL1        0.0709
     14 C         140.5236  143.1110  163.0782 C.ar    1  UNL1        0.0135
     15 C         141.6723  142.7019  162.2047 C.ar    1  UNL1        0.0399
     16 C         142.9186  143.5358  162.1652 C.ar    1  UNL1        0.1659
     17 C         143.0161  144.7787  162.9992 C.ar    1  UNL1        0.1745
     18 F         144.2624  145.6125  162.9596 F       1  UNL1       -0.2009
     19 C         141.8674  145.1879  163.8728 C.ar    1  UNL1        0.0430
     20 N         138.3237  145.1722  165.6593 N.1     1  UNL1       -0.1908
     21 C         139.4724  144.7631  164.7858 C.1     1  UNL1        0.1005
     22 C         141.2166  139.7723  168.8352 C.3     1  UNL1        0.0913
     23 C         139.8176  140.2988  168.9603 C.3     1  UNL1        0.1087
     24 N         138.6740  139.5411  168.3537 N.3     1  UNL1       -0.1780
     25 H         137.8209  140.0331  168.6193 H       1  UNL1        0.1488
     26 S         138.6124  139.3381  166.8688 S.O2    1  UNL1        0.0603
     27 O         138.0664  137.9571  167.0802 O.2     1  UNL1       -0.1530
     28 O         139.1585  140.7191  166.6575 O.2     1  UNL1       -0.1530
     29 C         138.5509  139.1352  165.3839 C.ar    1  UNL1        0.1218
     30 C         138.9100  137.8038  164.7933 C.ar    1  UNL1        0.0230
     31 C         138.8485  137.6009  163.3084 C.ar    1  UNL1        0.0379
     32 C         138.4279  138.7292  162.4141 C.ar    1  UNL1        0.1347
     33 C         138.0689  140.0605  163.0046 C.ar    1  UNL1        0.0168
     34 C         138.1304  140.2635  164.4895 C.ar    1  UNL1        0.0187
     35 C         137.6933  140.9800  161.8805 C.3     1  UNL1        0.0768
     36 C         137.8201  140.2170  160.5954 C.3     1  UNL1        0.2102
     37 O         138.2742  138.8260  160.9251 O.3     1  UNL1       -0.4754
@<TRIPOS>BOND
     1    20    21    3
     2    21    13    1
     3    13    14   ar
     4    14    15   ar
     5    15    16   ar
     6    16    12    1
     7    12    11    1
     8    11    10    1
     9    10     1    1
    10     1     2    1
    11     2     3    1
    12     3     4    1
    13     4     5    1
    14     5    22    1
    15    22    23    1
    16    23    24    1
    17    24    26    1
    18    26    27    2
    19    26    28    2
    20    26    29    1
    21    29    30   ar
    22    30    31   ar
    23    31    32   ar
    24    32    33   ar
    25    33    34   ar
    26    33    35    1
    27    35    36    1
    28    36    37    1
    29     5     6    1
    30     6     7    1
    31     7     8    1
    32     7     9    1
    33    16    17   ar
    34    17    18    1
    35    17    19   ar
    36    19    13   ar
    37     8     1    1
    38     9     3    1
    39    34    29   ar
    40    37    32    1
    41    24    25    1
@<TRIPOS>MOLECULE
*****
 37 41 0 0 0
SMALL
GASTEIGER

@<TRIPOS>ATOM
      1 N         138.4245  140.6089  165.1803 N.3     1  UNL1       -0.2653
      2 C         139.3544  141.6374  165.7524 C.3     1  UNL1        0.1036
      3 C         139.6440  142.8948  164.9874 C.3     1  UNL1        0.1470
      4 C         139.9336  144.1522  164.2225 C.3     1  UNL1        0.1035
      5 N         139.2932  144.3811  162.8855 N.3     1  UNL1       -0.2673
      6 C         138.3632  143.3525  162.3135 C.3     1  UNL1        0.1035
      7 C         138.0737  142.0951  163.0784 C.3     1  UNL1        0.1470
      8 C         137.7841  140.8377  163.8433 C.3     1  UNL1        0.1036
      9 O         139.0036  143.1236  163.6505 O.3     1  UNL1       -0.3530
     10 C         138.1349  139.3515  165.9452 C.3     1  UNL1        0.1202
     11 C         138.8355  138.0754  165.5836 C.3     1  UNL1        0.2228
     12 O         138.5726  137.4252  164.2576 O.3     1  UNL1       -0.4717
     13 C         141.3628  138.1516  160.8027 C.ar    1  UNL1        0.0709
     14 C         141.9079  137.6974  162.1243 C.ar    1  UNL1        0.0135
     15 C         140.9779  137.4553  163.2759 C.ar    1  UNL1        0.0399
     16 C         139.5027  137.6673  163.1060 C.ar    1  UNL1        0.1659
     17 C         138.9576  138.1215  161.7845 C.ar    1  UNL1        0.1745
     18 F         137.4824  138.3335  161.6145 F       1  UNL1       -0.2009
     19 C         139.8877  138.3636  160.6327 C.ar    1  UNL1        0.0430
     20 N         143.2230  138.6359  158.4994 N.1     1  UNL1       -0.1908
     21 C         142.2929  138.3937  159.6510 C.1     1  UNL1        0.1005
     22 C         139.5827  145.6384  162.1206 C.3     1  UNL1        0.0913
     23 C         140.2861  145.5664  160.7977 C.3     1  UNL1        0.1087
     24 N         141.7724  145.3702  160.7482 N.3     1  UNL1       -0.1780
     25 H         142.1880  146.1326  161.2833 H       1  UNL1        0.1488
     26 S         142.3786  144.0987  161.2635 S.O2    1  UNL1        0.0603
     27 O         141.6122  143.3175  160.2377 O.2     1  UNL1       -0.1530
     28 O         143.1451  144.8798  162.2893 O.2     1  UNL1       -0.1530
     29 C         142.9849  142.8271  161.7789 C.ar    1  UNL1        0.1218
     30 C         143.7864  141.9525  160.8610 C.ar    1  UNL1        0.0230
     31 C         144.3926  140.6809  161.3763 C.ar    1  UNL1        0.0379
     32 C         144.1974  140.2840  162.8096 C.ar    1  UNL1        0.1347
     33 C         143.3959  141.1587  163.7275 C.ar    1  UNL1        0.0168
     34 C         142.7896  142.4302  163.2122 C.ar    1  UNL1        0.0187
     35 C         143.3739  140.5128  165.0812 C.3     1  UNL1        0.0768
     36 C         144.1618  139.2390  164.9999 C.3     1  UNL1        0.2102
     37 O         144.6708  139.0976  163.5960 O.3     1  UNL1       -0.4754
@<TRIPOS>BOND
     1    20    21    3
     2    21    13    1
     3    13    14   ar
     4    14    15   ar
     5    15    16   ar
     6    16    12    1
     7    12    11    1
     8    11    10    1
     9    10     1    1
    10     1     2    1
    11     2     3    1
    12     3     4    1
    13     4     5    1
    14     5    22    1
    15    22    23    1
    16    23    24    1
    17    24    26    1
    18    26    27    2
    19    26    28    2
    20    26    29    1
    21    29    30   ar
    22    30    31   ar
    23    31    32   ar
    24    32    33   ar
    25    33    34   ar
    26    33    35    1
    27    35    36    1
    28    36    37    1
    29     5     6    1
    30     6     7    1
    31     7     8    1
    32     7     9    1
    33    16    17   ar
    34    17    18    1
    35    17    19   ar
    36    19    13   ar
    37     8     1    1
    38     9     3    1
    39    34    29   ar
    40    37    32    1
    41    24    25    1
@<TRIPOS>MOLECULE
*****
 37 41 0 0 0
SMALL
GASTEIGER

@<TRIPOS>ATOM
      1 N         141.3589  145.1539  162.4653 N.3     1  UNL1       -0.2653
      2 C         141.8304  145.0298  163.8838 C.3     1  UNL1        0.1036
      3 C         142.8816  144.0205  164.2391 C.3     1  UNL1        0.1470
      4 C         143.9329  143.0112  164.5945 C.3     1  UNL1        0.1035
      5 N         144.5125  142.1260  163.5312 N.3     1  UNL1       -0.2673
      6 C         144.0409  142.2501  162.1127 C.3     1  UNL1        0.1035
      7 C         142.9897  143.2594  161.7574 C.3     1  UNL1        0.1470
      8 C         141.9385  144.2687  161.4021 C.3     1  UNL1        0.1036
      9 O         143.4613  143.1353  163.1759 O.3     1  UNL1       -0.3530
     10 C         140.3076  146.1632  162.1099 C.3     1  UNL1        0.1202
     11 C         138.9834  145.7090  161.5713 C.3     1  UNL1        0.2228
     12 O         138.0355  144.9507  162.4525 O.3     1  UNL1       -0.4717
     13 C         138.3470  140.4723  162.7638 C.ar    1  UNL1        0.0709
     14 C         138.7231  141.1633  161.4866 C.ar    1  UNL1        0.0135
     15 C         138.6193  142.6561  161.3829 C.ar    1  UNL1        0.0399
     16 C         138.1394  143.4579  162.5563 C.ar    1  UNL1        0.1659
     17 C         137.7633  142.7669  163.8334 C.ar    1  UNL1        0.1745
     18 F         137.2834  143.5687  165.0068 F       1  UNL1       -0.2009
     19 C         137.8671  141.2741  163.9372 C.ar    1  UNL1        0.0430
     20 N         138.5547  137.4868  162.9713 N.1     1  UNL1       -0.1908
     21 C         138.4509  138.9795  162.8676 C.1     1  UNL1        0.1005
     22 C         145.5637  141.1167  163.8865 C.3     1  UNL1        0.0913
     23 C         145.1746  139.6953  164.1663 C.3     1  UNL1        0.1087
     24 N         143.7513  139.2578  163.9854 N.3     1  UNL1       -0.1780
     25 H         143.7759  138.2655  163.7506 H       1  UNL1        0.1488
     26 S         142.7705  139.4126  165.1096 S.O2    1  UNL1        0.0603
     27 O         143.6956  138.6610  166.0202 O.2     1  UNL1       -0.1530
     28 O         141.8454  140.1642  164.1990 O.2     1  UNL1       -0.1530
     29 C         141.7896  139.5674  166.2339 C.ar    1  UNL1        0.1218
     30 C         140.3178  139.5997  165.9459 C.ar    1  UNL1        0.0230
     31 C         139.3369  139.7545  167.0701 C.ar    1  UNL1        0.0379
     32 C         139.8277  139.8771  168.4822 C.ar    1  UNL1        0.1347
     33 C         141.2995  139.8449  168.7701 C.ar    1  UNL1        0.0168
     34 C         142.2804  139.6900  167.6459 C.ar    1  UNL1        0.0187
     35 C         141.4852  139.9872  170.2517 C.3     1  UNL1        0.0768
     36 C         140.1282  140.1075  170.8796 C.3     1  UNL1        0.2102
     37 O         139.1039  140.0394  169.7859 O.3     1  UNL1       -0.4754
@<TRIPOS>BOND
     1    20    21    3
     2    21    13    1
     3    13    14   ar
     4    14    15   ar
     5    15    16   ar
     6    16    12    1
     7    12    11    1
     8    11    10    1
     9    10     1    1
    10     1     2    1
    11     2     3    1
    12     3     4    1
    13     4     5    1
    14     5    22    1
    15    22    23    1
    16    23    24    1
    17    24    26    1
    18    26    27    2
    19    26    28    2
    20    26    29    1
    21    29    30   ar
    22    30    31   ar
    23    31    32   ar
    24    32    33   ar
    25    33    34   ar
    26    33    35    1
    27    35    36    1
    28    36    37    1
    29     5     6    1
    30     6     7    1
    31     7     8    1
    32     7     9    1
    33    16    17   ar
    34    17    18    1
    35    17    19   ar
    36    19    13   ar
    37     8     1    1
    38     9     3    1
    39    34    29   ar
    40    37    32    1
    41    24    25    1
@<TRIPOS>MOLECULE
*****
 37 41 0 0 0
SMALL
GASTEIGER

@<TRIPOS>ATOM
      1 N         141.5026  144.7794  162.5765 N.3     1  UNL1       -0.2653
      2 C         142.2265  144.8875  163.8858 C.3     1  UNL1        0.1036
      3 C         143.0477  143.7363  164.3860 C.3     1  UNL1        0.1470
      4 C         143.8691  142.5850  164.8862 C.3     1  UNL1        0.1035
      5 N         143.9665  141.3257  164.0771 N.3     1  UNL1       -0.2673
      6 C         143.2425  141.2177  162.7677 C.3     1  UNL1        0.1035
      7 C         142.4213  142.3689  162.2676 C.3     1  UNL1        0.1470
      8 C         141.6000  143.5201  161.7674 C.3     1  UNL1        0.1036
      9 O         143.1451  142.4770  163.5768 O.3     1  UNL1       -0.3530
     10 C         140.6813  145.9306  162.0763 C.3     1  UNL1        0.1202
     11 C         139.3341  145.6814  161.4657 C.3     1  UNL1        0.2228
     12 O         138.1744  145.3002  162.3375 O.3     1  UNL1       -0.4717
     13 C         138.1957  141.3624  164.5154 C.ar    1  UNL1        0.0709
     14 C         137.7483  141.4260  163.0851 C.ar    1  UNL1        0.0135
     15 C         137.7412  142.7386  162.3591 C.ar    1  UNL1        0.0399
     16 C         138.1815  143.9876  163.0634 C.ar    1  UNL1        0.1659
     17 C         138.6290  143.9241  164.4937 C.ar    1  UNL1        0.1745
     18 F         139.0693  145.1731  165.1980 F       1  UNL1       -0.2009
     19 C         138.6361  142.6115  165.2197 C.ar    1  UNL1        0.0430
     20 N         138.2100  138.7373  165.9674 N.1     1  UNL1       -0.1908
     21 C         138.2029  140.0499  165.2414 C.1     1  UNL1        0.1005
     22 C         144.7877  140.1745  164.5772 C.3     1  UNL1        0.0913
     23 C         144.2766  138.7713  164.4361 C.3     1  UNL1        0.1087
     24 N         143.0973  138.3179  165.2444 N.3     1  UNL1       -0.1780
     25 H         143.3091  137.3751  165.5710 H       1  UNL1        0.1488
     26 S         142.6640  139.1050  166.4455 S.O2    1  UNL1        0.0603
     27 O         141.6441  139.8195  165.6093 O.2     1  UNL1       -0.1530
     28 O         143.6839  138.3904  167.2817 O.2     1  UNL1       -0.1530
     29 C         142.2307  139.8921  167.6467 C.ar    1  UNL1        0.1218
     30 C         142.5130  139.3729  169.0254 C.ar    1  UNL1        0.0230
     31 C         142.0798  140.1600  170.2265 C.ar    1  UNL1        0.0379
     32 C         141.3643  141.4663  170.0490 C.ar    1  UNL1        0.1347
     33 C         141.0820  141.9855  168.6703 C.ar    1  UNL1        0.0168
     34 C         141.5153  141.1985  167.4692 C.ar    1  UNL1        0.0187
     35 C         140.3641  143.2955  168.8064 C.3     1  UNL1        0.0768
     36 C         140.2026  143.5859  170.2691 C.3     1  UNL1        0.2102
     37 O         140.8207  142.4554  171.0371 O.3     1  UNL1       -0.4754
@<TRIPOS>BOND
     1    20    21    3
     2    21    13    1
     3    13    14   ar
     4    14    15   ar
     5    15    16   ar
     6    16    12    1
     7    12    11    1
     8    11    10    1
     9    10     1    1
    10     1     2    1
    11     2     3    1
    12     3     4    1
    13     4     5    1
    14     5    22    1
    15    22    23    1
    16    23    24    1
    17    24    26    1
    18    26    27    2
    19    26    28    2
    20    26    29    1
    21    29    30   ar
    22    30    31   ar
    23    31    32   ar
    24    32    33   ar
    25    33    34   ar
    26    33    35    1
    27    35    36    1
    28    36    37    1
    29     5     6    1
    30     6     7    1
    31     7     8    1
    32     7     9    1
    33    16    17   ar
    34    17    18    1
    35    17    19   ar
    36    19    13   ar
    37     8     1    1
    38     9     3    1
    39    34    29   ar
    40    37    32    1
    41    24    25    1
@<TRIPOS>MOLECULE
*****
 37 41 0 0 0
SMALL
GASTEIGER

@<TRIPOS>ATOM
      1 N         138.3410  143.1286  162.4101 N.3     1  UNL1       -0.2653
      2 C         137.9076  141.7166  162.6717 C.3     1  UNL1        0.1036
      3 C         138.5915  140.5802  161.9710 C.3     1  UNL1        0.1470
      4 C         139.2754  139.4437  161.2704 C.3     1  UNL1        0.1035
      5 N         140.3926  139.7193  160.3082 N.3     1  UNL1       -0.2673
      6 C         140.8259  141.1314  160.0466 C.3     1  UNL1        0.1035
      7 C         140.1421  142.2678  160.7472 C.3     1  UNL1        0.1470
      8 C         139.4582  143.4042  161.4479 C.3     1  UNL1        0.1036
      9 O         139.7087  140.8558  161.0088 O.3     1  UNL1       -0.3530
     10 C         137.6571  144.2650  163.1107 C.3     1  UNL1        0.1202
     11 C         137.9455  144.5366  164.5575 C.3     1  UNL1        0.2228
     12 O         139.2537  145.1508  164.9591 O.3     1  UNL1       -0.4717
     13 C         143.1223  143.1904  163.7587 C.ar    1  UNL1        0.0709
     14 C         142.8333  144.6004  163.3362 C.ar    1  UNL1        0.0135
     15 C         141.5438  145.2539  163.7363 C.ar    1  UNL1        0.0399
     16 C         140.5433  144.4973  164.5589 C.ar    1  UNL1        0.1659
     17 C         140.8322  143.0874  164.9814 C.ar    1  UNL1        0.1745
     18 F         139.8317  142.3309  165.8040 F       1  UNL1       -0.2009
     19 C         142.1218  142.4339  164.5813 C.ar    1  UNL1        0.0430
     20 N         145.7014  141.8836  162.9585 N.1     1  UNL1       -0.1908
     21 C         144.4119  142.5370  163.3586 C.1     1  UNL1        0.1005
     22 C         141.0765  138.5830  159.6075 C.3     1  UNL1        0.0913
     23 C         142.3826  138.0590  160.1266 C.3     1  UNL1        0.1087
     24 N         142.4081  137.1775  161.3400 N.3     1  UNL1       -0.1780
     25 H         143.3242  136.7293  161.3592 H       1  UNL1        0.1488
     26 S         142.1864  137.7681  162.7008 S.O2    1  UNL1        0.0603
     27 O         143.3544  138.6860  162.4927 O.2     1  UNL1       -0.1530
     28 O         141.0185  136.8503  162.9089 O.2     1  UNL1       -0.1530
     29 C         141.9647  138.3588  164.0618 C.ar    1  UNL1        0.1218
     30 C         143.1374  138.7829  164.8954 C.ar    1  UNL1        0.0230
     31 C         142.9157  139.3735  166.2562 C.ar    1  UNL1        0.0379
     32 C         141.5213  139.5400  166.7835 C.ar    1  UNL1        0.1347
     33 C         140.3487  139.1159  165.9498 C.ar    1  UNL1        0.0168
     34 C         140.5703  138.5252  164.5890 C.ar    1  UNL1        0.0187
     35 C         139.0989  139.4005  166.7290 C.3     1  UNL1        0.0768
     36 C         139.4992  140.0006  168.0442 C.3     1  UNL1        0.2102
     37 O         140.9963  140.0868  168.0778 O.3     1  UNL1       -0.4754
@<TRIPOS>BOND
     1    20    21    3
     2    21    13    1
     3    13    14   ar
     4    14    15   ar
     5    15    16   ar
     6    16    12    1
     7    12    11    1
     8    11    10    1
     9    10     1    1
    10     1     2    1
    11     2     3    1
    12     3     4    1
    13     4     5    1
    14     5    22    1
    15    22    23    1
    16    23    24    1
    17    24    26    1
    18    26    27    2
    19    26    28    2
    20    26    29    1
    21    29    30   ar
    22    30    31   ar
    23    31    32   ar
    24    32    33   ar
    25    33    34   ar
    26    33    35    1
    27    35    36    1
    28    36    37    1
    29     5     6    1
    30     6     7    1
    31     7     8    1
    32     7     9    1
    33    16    17   ar
    34    17    18    1
    35    17    19   ar
    36    19    13   ar
    37     8     1    1
    38     9     3    1
    39    34    29   ar
    40    37    32    1
    41    24    25    1
@<TRIPOS>MOLECULE
*****
 37 41 0 0 0
SMALL
GASTEIGER

@<TRIPOS>ATOM
      1 N         143.0277  140.3078  160.3677 N.3     1  UNL1       -0.2653
      2 C         141.7055  140.4785  159.6803 C.3     1  UNL1        0.1036
      3 C         141.0263  141.8159  159.6824 C.3     1  UNL1        0.1470
      4 C         140.3470  143.1533  159.6844 C.3     1  UNL1        0.1035
      5 N         140.9900  144.3200  160.3739 N.3     1  UNL1       -0.2673
      6 C         142.3123  144.1492  161.0613 C.3     1  UNL1        0.1035
      7 C         142.9915  142.8119  161.0592 C.3     1  UNL1        0.1470
      8 C         143.6707  141.4745  161.0571 C.3     1  UNL1        0.1036
      9 O         141.6693  142.9826  160.3718 O.3     1  UNL1       -0.3530
     10 C         143.7070  138.9704  160.3656 C.3     1  UNL1        0.1202
     11 C         143.1949  137.8678  161.2442 C.3     1  UNL1        0.2228
     12 O         141.7512  137.4659  161.1789 O.3     1  UNL1       -0.4717
     13 C         139.1133  137.9567  164.7915 C.ar    1  UNL1        0.0709
     14 C         140.4751  137.3442  164.9347 C.ar    1  UNL1        0.0135
     15 C         141.3544  137.1806  163.7306 C.ar    1  UNL1        0.0399
     16 C         140.8719  137.6295  162.3831 C.ar    1  UNL1        0.1659
     17 C         139.5102  138.2419  162.2397 C.ar    1  UNL1        0.1745
     18 F         139.0277  138.6907  160.8922 F       1  UNL1       -0.2009
     19 C         138.6308  138.4055  163.4439 C.ar    1  UNL1        0.0430
     20 N         137.3548  138.2838  167.1998 N.1     1  UNL1       -0.1908
     21 C         138.2340  138.1202  165.9956 C.1     1  UNL1        0.1005
     22 C         140.3108  145.6574  160.3759 C.3     1  UNL1        0.0913
     23 C         139.6753  146.1739  161.6327 C.3     1  UNL1        0.1087
     24 N         138.7640  145.2892  162.4307 N.3     1  UNL1       -0.1780
     25 H         138.1459  144.8258  161.7646 H       1  UNL1        0.1488
     26 S         139.3387  144.2160  163.3070 S.O2    1  UNL1        0.0603
     27 O         140.2218  145.2308  163.9705 O.2     1  UNL1       -0.1530
     28 O         138.4556  143.2012  162.6434 O.2     1  UNL1       -0.1530
     29 C         139.9134  143.1427  164.1833 C.ar    1  UNL1        0.1218
     30 C         140.5933  141.9559  163.5675 C.ar    1  UNL1        0.0230
     31 C         141.1680  140.8826  164.4437 C.ar    1  UNL1        0.0379
     32 C         141.0629  140.9962  165.9357 C.ar    1  UNL1        0.1347
     33 C         140.3830  142.1831  166.5514 C.ar    1  UNL1        0.0168
     34 C         139.8083  143.2563  165.6752 C.ar    1  UNL1        0.0187
     35 C         140.4307  142.0229  168.0421 C.3     1  UNL1        0.0768
     36 C         141.1401  140.7371  168.3477 C.3     1  UNL1        0.2102
     37 O         141.5308  140.1026  167.0458 O.3     1  UNL1       -0.4754
@<TRIPOS>BOND
     1    20    21    3
     2    21    13    1
     3    13    14   ar
     4    14    15   ar
     5    15    16   ar
     6    16    12    1
     7    12    11    1
     8    11    10    1
     9    10     1    1
    10     1     2    1
    11     2     3    1
    12     3     4    1
    13     4     5    1
    14     5    22    1
    15    22    23    1
    16    23    24    1
    17    24    26    1
    18    26    27    2
    19    26    28    2
    20    26    29    1
    21    29    30   ar
    22    30    31   ar
    23    31    32   ar
    24    32    33   ar
    25    33    34   ar
    26    33    35    1
    27    35    36    1
    28    36    37    1
    29     5     6    1
    30     6     7    1
    31     7     8    1
    32     7     9    1
    33    16    17   ar
    34    17    18    1
    35    17    19   ar
    36    19    13   ar
    37     8     1    1
    38     9     3    1
    39    34    29   ar
    40    37    32    1
    41    24    25    1
@<TRIPOS>MOLECULE
*****
 37 41 0 0 0
SMALL
GASTEIGER

@<TRIPOS>ATOM
      1 N         141.5387  144.9997  162.6243 N.3     1  UNL1       -0.2653
      2 C         141.8836  144.7617  164.0646 C.3     1  UNL1        0.1036
      3 C         142.8476  143.6740  164.4351 C.3     1  UNL1        0.1470
      4 C         143.8117  142.5862  164.8057 C.3     1  UNL1        0.1035
      5 N         144.4309  141.7363  163.7360 N.3     1  UNL1       -0.2673
      6 C         144.0860  141.9743  162.2957 C.3     1  UNL1        0.1035
      7 C         143.1220  143.0621  161.9251 C.3     1  UNL1        0.1470
      8 C         142.1580  144.1498  161.5546 C.3     1  UNL1        0.1036
      9 O         143.4668  142.8241  163.3654 O.3     1  UNL1       -0.3530
     10 C         140.5747  146.0875  162.2537 C.3     1  UNL1        0.1202
     11 C         139.3147  145.7524  161.5121 C.3     1  UNL1        0.2228
     12 O         138.1007  145.2941  162.2646 O.3     1  UNL1       -0.4717
     13 C         138.1580  141.3581  164.4451 C.ar    1  UNL1        0.0709
     14 C         137.8232  141.4010  162.9835 C.ar    1  UNL1        0.0135
     15 C         137.8041  142.7130  162.2567 C.ar    1  UNL1        0.0399
     16 C         138.1198  143.9821  162.9914 C.ar    1  UNL1        0.1659
     17 C         138.4545  143.9392  164.4529 C.ar    1  UNL1        0.1745
     18 F         138.7702  145.2083  165.1876 F       1  UNL1       -0.2009
     19 C         138.4736  142.6272  165.1798 C.ar    1  UNL1        0.0430
     20 N         138.1961  138.7341  165.8987 N.1     1  UNL1       -0.1908
     21 C         138.1770  140.0461  165.1719 C.1     1  UNL1        0.1005
     22 C         145.3949  140.6486  164.1065 C.3     1  UNL1        0.0913
     23 C         144.9440  139.2179  164.1161 C.3     1  UNL1        0.1087
     24 N         143.5658  138.8692  164.5945 N.3     1  UNL1       -0.1780
     25 H         143.3432  139.5179  165.3494 H       1  UNL1        0.1488
     26 S         142.4096  138.9028  163.6395 S.O2    1  UNL1        0.0603
     27 O         143.2216  138.1470  162.6298 O.2     1  UNL1       -0.1530
     28 O         141.5977  139.6587  164.6491 O.2     1  UNL1       -0.1530
     29 C         141.2534  138.9366  162.6844 C.ar    1  UNL1        0.1218
     30 C         140.1306  137.9528  162.8311 C.ar    1  UNL1        0.0230
     31 C         138.9743  137.9865  161.8762 C.ar    1  UNL1        0.0379
     32 C         138.9409  139.0039  160.7746 C.ar    1  UNL1        0.1347
     33 C         140.0637  139.9877  160.6279 C.ar    1  UNL1        0.0168
     34 C         141.2199  139.9540  161.5828 C.ar    1  UNL1        0.0187
     35 C         139.7574  140.8688  159.4532 C.3     1  UNL1        0.0768
     36 C         138.4453  140.4297  158.8740 C.3     1  UNL1        0.2102
     37 O         137.9407  139.2771  159.6906 O.3     1  UNL1       -0.4754
@<TRIPOS>BOND
     1    20    21    3
     2    21    13    1
     3    13    14   ar
     4    14    15   ar
     5    15    16   ar
     6    16    12    1
     7    12    11    1
     8    11    10    1
     9    10     1    1
    10     1     2    1
    11     2     3    1
    12     3     4    1
    13     4     5    1
    14     5    22    1
    15    22    23    1
    16    23    24    1
    17    24    26    1
    18    26    27    2
    19    26    28    2
    20    26    29    1
    21    29    30   ar
    22    30    31   ar
    23    31    32   ar
    24    32    33   ar
    25    33    34   ar
    26    33    35    1
    27    35    36    1
    28    36    37    1
    29     5     6    1
    30     6     7    1
    31     7     8    1
    32     7     9    1
    33    16    17   ar
    34    17    18    1
    35    17    19   ar
    36    19    13   ar
    37     8     1    1
    38     9     3    1
    39    34    29   ar
    40    37    32    1
    41    24    25    1
@<TRIPOS>MOLECULE
*****
 37 41 0 0 0
SMALL
GASTEIGER

@<TRIPOS>ATOM
      1 N         139.4550  139.4957  163.2106 N.3     1  UNL1       -0.2653
      2 C         140.4238  139.3680  162.0726 C.3     1  UNL1        0.1036
      3 C         140.3445  140.3131  160.9106 C.3     1  UNL1        0.1470
      4 C         140.2653  141.2583  159.7485 C.3     1  UNL1        0.1035
      5 N         139.2172  142.3312  159.7244 N.3     1  UNL1       -0.2673
      6 C         138.2484  142.4588  160.8625 C.3     1  UNL1        0.1035
      7 C         138.3276  141.5137  162.0245 C.3     1  UNL1        0.1470
      8 C         138.4069  140.5685  163.1866 C.3     1  UNL1        0.1036
      9 O         139.2964  141.3860  160.8865 O.3     1  UNL1       -0.3530
     10 C         139.5342  138.5505  164.3727 C.3     1  UNL1        0.1202
     11 C         140.8474  137.9292  164.7459 C.3     1  UNL1        0.2228
     12 O         142.0729  138.7849  164.8728 O.3     1  UNL1       -0.4717
     13 C         142.4543  141.6746  168.3012 C.ar    1  UNL1        0.0709
     14 C         142.7631  140.2212  168.5074 C.ar    1  UNL1        0.0135
     15 C         142.6360  139.2580  167.3646 C.ar    1  UNL1        0.0399
     16 C         142.2000  139.7481  166.0156 C.ar    1  UNL1        0.1659
     17 C         141.8911  141.2013  165.8094 C.ar    1  UNL1        0.1745
     18 F         141.4551  141.6914  164.4605 F       1  UNL1       -0.2009
     19 C         142.0182  142.1646  166.9523 C.ar    1  UNL1        0.0430
     20 N         142.7085  143.6010  170.5868 N.1     1  UNL1       -0.1908
     21 C         142.5814  142.6378  169.4440 C.1     1  UNL1        0.1005
     22 C         139.1379  143.2763  158.5624 C.3     1  UNL1        0.0913
     23 C         139.9818  144.5164  158.5453 C.3     1  UNL1        0.1087
     24 N         140.1943  145.2965  159.8087 N.3     1  UNL1       -0.1780
     25 H         139.2925  145.3393  160.2835 H       1  UNL1        0.1488
     26 S         141.1951  144.8253  160.8218 S.O2    1  UNL1        0.0603
     27 O         140.2332  145.1539  161.9248 O.2     1  UNL1       -0.1530
     28 O         142.1569  144.4967  159.7187 O.2     1  UNL1       -0.1530
     29 C         142.1960  144.3541  161.8348 C.ar    1  UNL1        0.1218
     30 C         142.3162  145.0580  163.1539 C.ar    1  UNL1        0.0230
     31 C         143.3170  144.5868  164.1670 C.ar    1  UNL1        0.0379
     32 C         144.1976  143.4118  163.8609 C.ar    1  UNL1        0.1347
     33 C         144.0774  142.7078  162.5418 C.ar    1  UNL1        0.0168
     34 C         143.0765  143.1790  161.5288 C.ar    1  UNL1        0.0187
     35 C         145.0733  141.5863  162.5224 C.3     1  UNL1        0.0768
     36 C         145.8091  141.5971  163.8295 C.3     1  UNL1        0.2102
     37 O         145.2679  142.7253  164.6567 O.3     1  UNL1       -0.4754
@<TRIPOS>BOND
     1    20    21    3
     2    21    13    1
     3    13    14   ar
     4    14    15   ar
     5    15    16   ar
     6    16    12    1
     7    12    11    1
     8    11    10    1
     9    10     1    1
    10     1     2    1
    11     2     3    1
    12     3     4    1
    13     4     5    1
    14     5    22    1
    15    22    23    1
    16    23    24    1
    17    24    26    1
    18    26    27    2
    19    26    28    2
    20    26    29    1
    21    29    30   ar
    22    30    31   ar
    23    31    32   ar
    24    32    33   ar
    25    33    34   ar
    26    33    35    1
    27    35    36    1
    28    36    37    1
    29     5     6    1
    30     6     7    1
    31     7     8    1
    32     7     9    1
    33    16    17   ar
    34    17    18    1
    35    17    19   ar
    36    19    13   ar
    37     8     1    1
    38     9     3    1
    39    34    29   ar
    40    37    32    1
    41    24    25    1
@<TRIPOS>MOLECULE
*****
 37 41 0 0 0
SMALL
GASTEIGER

@<TRIPOS>ATOM
      1 N         143.4887  144.3824  163.7543 N.3     1  UNL1       -0.2653
      2 C         143.9253  143.6113  162.5441 C.3     1  UNL1        0.1036
      3 C         143.0656  143.5948  161.3150 C.3     1  UNL1        0.1470
      4 C         142.2059  143.5782  160.0859 C.3     1  UNL1        0.1035
      5 N         140.9096  144.3328  160.0671 N.3     1  UNL1       -0.2673
      6 C         140.4731  145.1039  161.2774 C.3     1  UNL1        0.1035
      7 C         141.3328  145.1204  162.5065 C.3     1  UNL1        0.1470
      8 C         142.1925  145.1370  163.7355 C.3     1  UNL1        0.1036
      9 O         141.7693  144.3493  161.2962 O.3     1  UNL1       -0.3530
     10 C         144.3484  144.3990  164.9835 C.3     1  UNL1        0.1202
     11 C         144.4449  143.1769  165.8477 C.3     1  UNL1        0.2228
     12 O         143.5978  141.9762  165.5462 O.3     1  UNL1       -0.4717
     13 C         140.3741  140.7171  168.4223 C.ar    1  UNL1        0.0709
     14 C         140.3641  142.1009  167.8433 C.ar    1  UNL1        0.0135
     15 C         141.4387  142.5206  166.8847 C.ar    1  UNL1        0.0399
     16 C         142.5233  141.5565  166.5049 C.ar    1  UNL1        0.1659
     17 C         142.5333  140.1728  167.0838 C.ar    1  UNL1        0.1745
     18 F         143.6179  139.2087  166.7040 F       1  UNL1       -0.2009
     19 C         141.4587  139.7531  168.0425 C.ar    1  UNL1        0.0430
     20 N         138.2249  139.8778  170.3397 N.1     1  UNL1       -0.1908
     21 C         139.2995  140.2975  169.3810 C.1     1  UNL1        0.1005
     22 C         140.0499  144.3162  158.8380 C.3     1  UNL1        0.0913
     23 C         139.2301  143.1029  158.5125 C.3     1  UNL1        0.1087
     24 N         137.9967  142.7955  159.3087 N.3     1  UNL1       -0.1780
     25 H         137.3918  142.2337  158.7095 H       1  UNL1        0.1488
     26 S         138.1095  142.0669  160.6149 S.O2    1  UNL1        0.0603
     27 O         137.7266  143.3191  161.3465 O.2     1  UNL1       -0.1530
     28 O         138.4924  140.8146  159.8834 O.2     1  UNL1       -0.1530
     29 C         138.2224  141.3382  161.9212 C.ar    1  UNL1        0.1218
     30 C         137.9908  142.0693  163.2103 C.ar    1  UNL1        0.0230
     31 C         138.1036  141.3407  164.5166 C.ar    1  UNL1        0.0379
     32 C         138.4481  139.8809  164.5337 C.ar    1  UNL1        0.1347
     33 C         138.6797  139.1498  163.2446 C.ar    1  UNL1        0.0168
     34 C         138.5669  139.8784  161.9384 C.ar    1  UNL1        0.0187
     35 C         139.0024  137.7222  163.5730 C.3     1  UNL1        0.0768
     36 C         138.9702  137.5710  165.0650 C.3     1  UNL1        0.2102
     37 O         138.6276  138.9052  165.6588 O.3     1  UNL1       -0.4754
@<TRIPOS>BOND
     1    20    21    3
     2    21    13    1
     3    13    14   ar
     4    14    15   ar
     5    15    16   ar
     6    16    12    1
     7    12    11    1
     8    11    10    1
     9    10     1    1
    10     1     2    1
    11     2     3    1
    12     3     4    1
    13     4     5    1
    14     5    22    1
    15    22    23    1
    16    23    24    1
    17    24    26    1
    18    26    27    2
    19    26    28    2
    20    26    29    1
    21    29    30   ar
    22    30    31   ar
    23    31    32   ar
    24    32    33   ar
    25    33    34   ar
    26    33    35    1
    27    35    36    1
    28    36    37    1
    29     5     6    1
    30     6     7    1
    31     7     8    1
    32     7     9    1
    33    16    17   ar
    34    17    18    1
    35    17    19   ar
    36    19    13   ar
    37     8     1    1
    38     9     3    1
    39    34    29   ar
    40    37    32    1
    41    24    25    1
