@<TRIPOS>MOLECULE
*****
 29 32 0 0 0
SMALL
GASTEIGER

@<TRIPOS>ATOM
      1 C         140.4341  142.2883  166.4957 C.2     1  UNL1        0.0020
      2 C         141.0764  142.5982  167.8154 C.2     1  UNL1        0.0130
      3 C         140.8833  141.6719  168.9793 C.3     1  UNL1        0.1542
      4 C         141.7186  142.9080  169.1350 C.3     1  UNL1        0.0614
      5 C         142.3608  143.2178  170.4546 C.3     1  UNL1        0.0725
      6 N         142.1677  142.2916  171.6186 N.3     1  UNL1       -0.2972
      7 C         141.3324  141.0555  171.4629 C.3     1  UNL1        0.0725
      8 C         140.6902  140.7457  170.1432 C.3     1  UNL1        0.0614
      9 O         140.0479  140.4358  168.8235 O.3     1  UNL1       -0.4785
     10 C         139.4056  140.1260  167.5039 C.ar    1  UNL1        0.1386
     11 C         138.5702  138.8899  167.3481 C.ar    1  UNL1        0.0369
     12 C         137.9280  138.5801  166.0285 C.ar    1  UNL1        0.0031
     13 C         138.1211  139.5063  164.8645 C.ar    1  UNL1        0.0002
     14 C         138.9564  140.7424  165.0203 C.ar    1  UNL1        0.0030
     15 C         139.5987  141.0523  166.3400 C.ar    1  UNL1        0.0338
     16 H         141.7433  142.8416  172.3654 H       1  UNL1        0.1233
     17 C         142.0180  143.9874  163.2778 C.ar    1  UNL1        0.0536
     18 C         141.0134  145.0671  163.0039 C.ar    1  UNL1        0.0045
     19 C         139.8157  145.2206  163.8938 C.ar    1  UNL1        0.0001
     20 C         139.6226  144.2943  165.0578 C.ar    1  UNL1       -0.0000
     21 C         140.6272  143.2146  165.3317 C.ar    1  UNL1        0.0000
     22 C         141.8249  143.0611  164.4417 C.ar    1  UNL1        0.0045
     23 N         143.2272  142.7794  161.3212 N.am    1  UNL1       -0.2761
     24 C         143.2156  143.8339  162.3878 C.2     1  UNL1        0.2490
     25 O         144.4016  144.7351  162.5645 O.2     1  UNL1       -0.2699
     26 C         144.2519  142.5826  158.9419 C.3     1  UNL1        0.0233
     27 C         144.4249  142.6259  160.4312 C.3     1  UNL1        0.0938
     28 C         142.0412  141.8782  161.1445 C.3     1  UNL1        0.0938
     29 C         142.0292  140.5206  161.7824 C.3     1  UNL1        0.0233
@<TRIPOS>BOND
     1    26    27    1
     2    27    23    1
     3    23    28    1
     4    28    29    1
     5    23    24   am
     6    24    25    2
     7    24    17    1
     8    17    18   ar
     9    18    19   ar
    10    19    20   ar
    11    20    21   ar
    12    21     1    1
    13     1     2    2
    14     2     3    1
    15     3     4    1
    16     4     5    1
    17     5     6    1
    18     6     7    1
    19     7     8    1
    20     3     9    1
    21     9    10    1
    22    10    11   ar
    23    11    12   ar
    24    12    13   ar
    25    13    14   ar
    26    14    15   ar
    27    21    22   ar
    28    22    17   ar
    29    15     1    1
    30     8     3    1
    31    15    10   ar
    32     6    16    1
@<TRIPOS>MOLECULE
*****
 29 32 0 0 0
SMALL
GASTEIGER

@<TRIPOS>ATOM
      1 C         142.0336  140.6217  166.3688 C.2     1  UNL1        0.0020
      2 C         142.4547  141.3058  167.6356 C.2     1  UNL1        0.0130
      3 C         141.5497  141.2924  168.8317 C.3     1  UNL1        0.1542
      4 C         142.8758  141.9898  168.9024 C.3     1  UNL1        0.0614
      5 C         143.2969  142.6738  170.1692 C.3     1  UNL1        0.0725
      6 N         142.3918  142.6604  171.3653 N.3     1  UNL1       -0.2972
      7 C         141.0657  141.9630  171.2946 C.3     1  UNL1        0.0725
      8 C         140.6446  141.2790  170.0279 C.3     1  UNL1        0.0614
      9 O         140.2235  140.5949  168.7610 O.3     1  UNL1       -0.4785
     10 C         139.8024  139.9109  167.4942 C.ar    1  UNL1        0.1386
     11 C         138.4763  139.2135  167.4235 C.ar    1  UNL1        0.0369
     12 C         138.0552  138.5295  166.1568 C.ar    1  UNL1        0.0031
     13 C         138.9602  138.5429  164.9606 C.ar    1  UNL1        0.0002
     14 C         140.2863  139.2403  165.0313 C.ar    1  UNL1        0.0030
     15 C         140.7075  139.9243  166.2981 C.ar    1  UNL1        0.0338
     16 H         142.2002  143.6343  171.6005 H       1  UNL1        0.1233
     17 C         143.6859  141.7101  162.9285 C.ar    1  UNL1        0.0536
     18 C         144.7487  140.6619  162.7804 C.ar    1  UNL1        0.0045
     19 C         144.9063  139.6004  163.8283 C.ar    1  UNL1        0.0001
     20 C         144.0013  139.5870  165.0244 C.ar    1  UNL1       -0.0000
     21 C         142.9386  140.6351  165.1726 C.ar    1  UNL1        0.0000
     22 C         142.7809  141.6967  164.1246 C.ar    1  UNL1        0.0045
     23 N         142.6002  142.5508  160.7229 N.am    1  UNL1       -0.2761
     24 C         143.5282  142.7716  161.8806 C.2     1  UNL1        0.2490
     25 O         144.2985  144.0540  161.9902 O.2     1  UNL1       -0.2699
     26 C         141.4333  144.7063  159.8614 C.3     1  UNL1        0.0233
     27 C         142.4426  143.6123  159.6750 C.3     1  UNL1        0.0938
     28 C         141.8299  141.2684  160.6133 C.3     1  UNL1        0.0938
     29 C         140.4462  141.1735  161.1844 C.3     1  UNL1        0.0233
@<TRIPOS>BOND
     1    26    27    1
     2    27    23    1
     3    23    28    1
     4    28    29    1
     5    23    24   am
     6    24    25    2
     7    24    17    1
     8    17    18   ar
     9    18    19   ar
    10    19    20   ar
    11    20    21   ar
    12    21     1    1
    13     1     2    2
    14     2     3    1
    15     3     4    1
    16     4     5    1
    17     5     6    1
    18     6     7    1
    19     7     8    1
    20     3     9    1
    21     9    10    1
    22    10    11   ar
    23    11    12   ar
    24    12    13   ar
    25    13    14   ar
    26    14    15   ar
    27    21    22   ar
    28    22    17   ar
    29    15     1    1
    30     8     3    1
    31    15    10   ar
    32     6    16    1
@<TRIPOS>MOLECULE
*****
 29 32 0 0 0
SMALL
GASTEIGER

@<TRIPOS>ATOM
      1 C         141.4376  142.1100  166.3627 C.2     1  UNL1        0.0020
      2 C         141.8488  142.3665  167.7823 C.2     1  UNL1        0.0130
      3 C         141.2066  141.5989  168.8995 C.3     1  UNL1        0.1542
      4 C         142.2600  142.6230  169.2018 C.3     1  UNL1        0.0614
      5 C         142.6712  142.8795  170.6213 C.3     1  UNL1        0.0725
      6 N         142.0289  142.1118  171.7386 N.3     1  UNL1       -0.2972
      7 C         140.9756  141.0877  171.4363 C.3     1  UNL1        0.0725
      8 C         140.5644  140.8312  170.0168 C.3     1  UNL1        0.0614
      9 O         140.1532  140.5747  168.5972 O.3     1  UNL1       -0.4785
     10 C         139.7420  140.3182  167.1776 C.ar    1  UNL1        0.1386
     11 C         138.6885  139.2940  166.8753 C.ar    1  UNL1        0.0369
     12 C         138.2774  139.0375  165.4558 C.ar    1  UNL1        0.0031
     13 C         138.9196  139.8052  164.3385 C.ar    1  UNL1        0.0002
     14 C         139.9730  140.8293  164.6408 C.ar    1  UNL1        0.0030
     15 C         140.3842  141.0858  166.0604 C.ar    1  UNL1        0.0338
     16 H         141.6021  142.7985  172.3604 H       1  UNL1        0.1233
     17 C         141.8776  144.2137  163.0264 C.ar    1  UNL1        0.0536
     18 C         143.3642  144.4130  163.0110 C.ar    1  UNL1        0.0045
     19 C         144.2086  143.8447  164.1127 C.ar    1  UNL1        0.0001
     20 C         143.5664  143.0770  165.2300 C.ar    1  UNL1       -0.0000
     21 C         142.0798  142.8777  165.2454 C.ar    1  UNL1        0.0000
     22 C         141.2353  143.4461  164.1436 C.ar    1  UNL1        0.0045
     23 N         140.8547  144.0181  160.6462 N.am    1  UNL1       -0.2761
     24 C         141.0332  144.7821  161.9246 C.2     1  UNL1        0.2490
     25 O         140.3673  146.1145  162.1013 O.2     1  UNL1       -0.2699
     26 C         140.6181  145.5184  158.5383 C.3     1  UNL1        0.0233
     27 C         140.0103  144.5864  159.5444 C.3     1  UNL1        0.0938
     28 C         141.5206  142.6857  160.4695 C.3     1  UNL1        0.0938
     29 C         140.8154  141.4324  160.8961 C.3     1  UNL1        0.0233
@<TRIPOS>BOND
     1    26    27    1
     2    27    23    1
     3    23    28    1
     4    28    29    1
     5    23    24   am
     6    24    25    2
     7    24    17    1
     8    17    18   ar
     9    18    19   ar
    10    19    20   ar
    11    20    21   ar
    12    21     1    1
    13     1     2    2
    14     2     3    1
    15     3     4    1
    16     4     5    1
    17     5     6    1
    18     6     7    1
    19     7     8    1
    20     3     9    1
    21     9    10    1
    22    10    11   ar
    23    11    12   ar
    24    12    13   ar
    25    13    14   ar
    26    14    15   ar
    27    21    22   ar
    28    22    17   ar
    29    15     1    1
    30     8     3    1
    31    15    10   ar
    32     6    16    1
@<TRIPOS>MOLECULE
*****
 29 32 0 0 0
SMALL
GASTEIGER

@<TRIPOS>ATOM
      1 C         140.5257  141.8215  165.8031 C.2     1  UNL1        0.0020
      2 C         140.4849  142.3831  167.1934 C.2     1  UNL1        0.0130
      3 C         141.3645  141.8048  168.2620 C.3     1  UNL1        0.1542
      4 C         140.4441  142.9447  168.5837 C.3     1  UNL1        0.0614
      5 C         140.4033  143.5063  169.9739 C.3     1  UNL1        0.0725
      6 N         141.2829  142.9280  171.0426 N.3     1  UNL1       -0.2972
      7 C         142.2033  141.7882  170.7209 C.3     1  UNL1        0.0725
      8 C         142.2441  141.2266  169.3306 C.3     1  UNL1        0.0614
      9 O         142.2849  140.6649  167.9403 O.3     1  UNL1       -0.4785
     10 C         142.3257  140.1033  166.5500 C.ar    1  UNL1        0.1386
     11 C         143.2461  138.9633  166.2283 C.ar    1  UNL1        0.0369
     12 C         143.2869  138.4017  164.8380 C.ar    1  UNL1        0.0031
     13 C         142.4073  138.9800  163.7694 C.ar    1  UNL1        0.0002
     14 C         141.4870  140.1199  164.0911 C.ar    1  UNL1        0.0030
     15 C         141.4461  140.6816  165.4814 C.ar    1  UNL1        0.0338
     16 H         140.6667  142.6072  171.7894 H       1  UNL1        0.1233
     17 C         139.3293  143.9599  162.6813 C.ar    1  UNL1        0.0536
     18 C         137.8870  143.5563  162.5973 C.ar    1  UNL1        0.0045
     19 C         137.3244  142.5745  163.5818 C.ar    1  UNL1        0.0001
     20 C         138.2039  141.9962  164.6504 C.ar    1  UNL1       -0.0000
     21 C         139.6462  142.3998  164.7345 C.ar    1  UNL1        0.0000
     22 C         140.2089  143.3816  163.7499 C.ar    1  UNL1        0.0045
     23 N         140.4409  144.4594  160.3868 N.am    1  UNL1       -0.2761
     24 C         139.8919  144.9418  161.6967 C.2     1  UNL1        0.2490
     25 O         139.9056  146.4060  162.0221 O.2     1  UNL1       -0.2699
     26 C         140.4005  145.5606  158.0340 C.3     1  UNL1        0.0233
     27 C         141.0036  145.4412  159.4022 C.3     1  UNL1        0.0938
     28 C         140.4273  142.9952  160.0614 C.3     1  UNL1        0.0938
     29 C         141.5580  142.1170  160.5086 C.3     1  UNL1        0.0233
@<TRIPOS>BOND
     1    26    27    1
     2    27    23    1
     3    23    28    1
     4    28    29    1
     5    23    24   am
     6    24    25    2
     7    24    17    1
     8    17    18   ar
     9    18    19   ar
    10    19    20   ar
    11    20    21   ar
    12    21     1    1
    13     1     2    2
    14     2     3    1
    15     3     4    1
    16     4     5    1
    17     5     6    1
    18     6     7    1
    19     7     8    1
    20     3     9    1
    21     9    10    1
    22    10    11   ar
    23    11    12   ar
    24    12    13   ar
    25    13    14   ar
    26    14    15   ar
    27    21    22   ar
    28    22    17   ar
    29    15     1    1
    30     8     3    1
    31    15    10   ar
    32     6    16    1
@<TRIPOS>MOLECULE
*****
 29 32 0 0 0
SMALL
GASTEIGER

@<TRIPOS>ATOM
      1 C         141.9825  142.1453  166.3015 C.2     1  UNL1        0.0020
      2 C         141.3525  142.6092  167.5814 C.2     1  UNL1        0.0130
      3 C         141.3726  141.7230  168.7915 C.3     1  UNL1        0.1542
      4 C         140.7224  143.0729  168.8612 C.3     1  UNL1        0.0614
      5 C         140.0924  143.5367  170.1410 C.3     1  UNL1        0.0725
      6 N         140.1126  142.6505  171.3511 N.3     1  UNL1       -0.2972
      7 C         140.7627  141.3006  171.2814 C.3     1  UNL1        0.0725
      8 C         141.3928  140.8368  170.0016 C.3     1  UNL1        0.0614
      9 O         142.0228  140.3730  168.7217 O.3     1  UNL1       -0.4785
     10 C         142.6528  139.9092  167.4419 C.ar    1  UNL1        0.1386
     11 C         143.3030  138.5592  167.3722 C.ar    1  UNL1        0.0369
     12 C         143.9331  138.0954  166.0924 C.ar    1  UNL1        0.0031
     13 C         143.9129  138.9816  164.8823 C.ar    1  UNL1        0.0002
     14 C         143.2628  140.3315  164.9520 C.ar    1  UNL1        0.0030
     15 C         142.6327  140.7954  166.2318 C.ar    1  UNL1        0.0338
     16 H         139.1406  142.4958  171.6189 H       1  UNL1        0.1233
     17 C         140.8015  143.8358  162.9107 C.ar    1  UNL1        0.0536
     18 C         141.9221  144.8038  162.6713 C.ar    1  UNL1        0.0045
     19 C         143.0628  144.8856  163.6419 C.ar    1  UNL1        0.0001
     20 C         143.0829  143.9994  164.8520 C.ar    1  UNL1       -0.0000
     21 C         141.9624  143.0315  165.0914 C.ar    1  UNL1        0.0000
     22 C         140.8216  142.9496  164.1208 C.ar    1  UNL1        0.0045
     23 N         139.6884  142.7413  160.8339 N.am    1  UNL1       -0.2761
     24 C         139.6608  143.7540  161.9401 C.2     1  UNL1        0.2490
     25 O         138.4925  144.6849  162.0758 O.2     1  UNL1       -0.2699
     26 C         138.6480  141.7676  158.6615 C.3     1  UNL1        0.0233
     27 C         138.5477  142.6595  159.8634 C.3     1  UNL1        0.0938
     28 C         140.8567  141.8104  160.6983 C.3     1  UNL1        0.0938
     29 C         140.8230  140.4635  161.3577 C.3     1  UNL1        0.0233
@<TRIPOS>BOND
     1    26    27    1
     2    27    23    1
     3    23    28    1
     4    28    29    1
     5    23    24   am
     6    24    25    2
     7    24    17    1
     8    17    18   ar
     9    18    19   ar
    10    19    20   ar
    11    20    21   ar
    12    21     1    1
    13     1     2    2
    14     2     3    1
    15     3     4    1
    16     4     5    1
    17     5     6    1
    18     6     7    1
    19     7     8    1
    20     3     9    1
    21     9    10    1
    22    10    11   ar
    23    11    12   ar
    24    12    13   ar
    25    13    14   ar
    26    14    15   ar
    27    21    22   ar
    28    22    17   ar
    29    15     1    1
    30     8     3    1
    31    15    10   ar
    32     6    16    1
@<TRIPOS>MOLECULE
*****
 29 32 0 0 0
SMALL
GASTEIGER

@<TRIPOS>ATOM
      1 C         141.3676  141.6305  165.6301 C.2     1  UNL1        0.0020
      2 C         140.9663  141.9994  167.0276 C.2     1  UNL1        0.0130
      3 C         140.1262  141.0587  167.8397 C.3     1  UNL1        0.1542
      4 C         140.5650  142.3682  168.4251 C.3     1  UNL1        0.0614
      5 C         140.1638  142.7369  169.8225 C.3     1  UNL1        0.0725
      6 N         139.3237  141.7963  170.6346 N.3     1  UNL1       -0.2972
      7 C         138.8849  140.4868  170.0492 C.3     1  UNL1        0.0725
      8 C         139.2861  140.1181  168.6517 C.3     1  UNL1        0.0614
      9 O         139.6874  139.7492  167.2542 O.3     1  UNL1       -0.4785
     10 C         140.0887  139.3804  165.8567 C.ar    1  UNL1        0.1386
     11 C         139.6499  138.0709  165.2712 C.ar    1  UNL1        0.0369
     12 C         140.0511  137.7021  163.8738 C.ar    1  UNL1        0.0031
     13 C         140.8912  138.6428  163.0617 C.ar    1  UNL1        0.0002
     14 C         141.3300  139.9522  163.6471 C.ar    1  UNL1        0.0030
     15 C         140.9288  140.3211  165.0447 C.ar    1  UNL1        0.0338
     16 H         138.4763  142.3036  170.8895 H       1  UNL1        0.1233
     17 C         142.6460  143.8545  162.6019 C.ar    1  UNL1        0.0536
     18 C         143.8878  144.4525  163.1939 C.ar    1  UNL1        0.0045
     19 C         144.2895  144.1098  164.5979 C.ar    1  UNL1        0.0001
     20 C         143.4494  143.1692  165.4100 C.ar    1  UNL1       -0.0000
     21 C         142.2077  142.5712  164.8180 C.ar    1  UNL1        0.0000
     22 C         141.8060  142.9138  163.4140 C.ar    1  UNL1        0.0045
     23 N         141.0752  145.1042  160.9525 N.am    1  UNL1       -0.2761
     24 C         142.2444  144.1971  161.1979 C.2     1  UNL1        0.2490
     25 O         143.0120  143.6328  160.0394 O.2     1  UNL1       -0.2699
     26 C         139.9628  144.4320  158.7029 C.3     1  UNL1        0.0233
     27 C         140.6735  145.4468  159.5485 C.3     1  UNL1        0.0938
     28 C         140.3076  145.6685  162.1111 C.3     1  UNL1        0.0938
     29 C         139.0190  145.0310  162.5390 C.3     1  UNL1        0.0233
@<TRIPOS>BOND
     1    26    27    1
     2    27    23    1
     3    23    28    1
     4    28    29    1
     5    23    24   am
     6    24    25    2
     7    24    17    1
     8    17    18   ar
     9    18    19   ar
    10    19    20   ar
    11    20    21   ar
    12    21     1    1
    13     1     2    2
    14     2     3    1
    15     3     4    1
    16     4     5    1
    17     5     6    1
    18     6     7    1
    19     7     8    1
    20     3     9    1
    21     9    10    1
    22    10    11   ar
    23    11    12   ar
    24    12    13   ar
    25    13    14   ar
    26    14    15   ar
    27    21    22   ar
    28    22    17   ar
    29    15     1    1
    30     8     3    1
    31    15    10   ar
    32     6    16    1
@<TRIPOS>MOLECULE
*****
 29 32 0 0 0
SMALL
GASTEIGER

@<TRIPOS>ATOM
      1 C         140.2954  141.1592  163.3221 C.2     1  UNL1        0.0020
      2 C         139.9831  142.5864  162.9819 C.2     1  UNL1        0.0130
      3 C         140.2639  143.1077  161.6037 C.3     1  UNL1        0.1542
      4 C         139.6708  144.0135  162.6417 C.3     1  UNL1        0.0614
      5 C         139.3584  145.4406  162.3016 C.3     1  UNL1        0.0725
      6 N         139.6392  145.9619  160.9233 N.3     1  UNL1       -0.2972
      7 C         140.2324  145.0560  159.8853 C.3     1  UNL1        0.0725
      8 C         140.5447  143.6289  160.2255 C.3     1  UNL1        0.0614
      9 O         140.8570  142.2017  160.5657 O.3     1  UNL1       -0.4785
     10 C         141.1694  140.7746  160.9058 C.ar    1  UNL1        0.1386
     11 C         141.7625  139.8686  159.8678 C.ar    1  UNL1        0.0369
     12 C         142.0748  138.4415  160.2080 C.ar    1  UNL1        0.0031
     13 C         141.7940  137.9203  161.5862 C.ar    1  UNL1        0.0002
     14 C         141.2009  138.8262  162.6242 C.ar    1  UNL1        0.0030
     15 C         140.8886  140.2534  162.2841 C.ar    1  UNL1        0.0338
     16 H         140.2815  146.7470  161.0307 H       1  UNL1        0.1233
     17 C         140.7439  140.3044  167.1715 C.ar    1  UNL1        0.0536
     18 C         139.4531  139.5955  167.4567 C.ar    1  UNL1        0.0045
     19 C         138.4431  139.4080  166.3637 C.ar    1  UNL1        0.0001
     20 C         138.7239  139.9292  164.9855 C.ar    1  UNL1       -0.0000
     21 C         140.0147  140.6380  164.7003 C.ar    1  UNL1        0.0000
     22 C         141.0247  140.8256  165.7933 C.ar    1  UNL1        0.0045
     23 N         141.7442  141.7459  169.0876 N.am    1  UNL1       -0.2761
     24 C         141.7539  140.4919  168.2645 C.2     1  UNL1        0.2490
     25 O         142.7737  139.4256  168.5344 O.2     1  UNL1       -0.2699
     26 C         144.1073  142.4972  169.8627 C.3     1  UNL1        0.0233
     27 C         142.7542  141.9334  170.1806 C.3     1  UNL1        0.0938
     28 C         140.7244  142.8123  168.8178 C.3     1  UNL1        0.0938
     29 C         140.4324  143.8515  169.8592 C.3     1  UNL1        0.0233
@<TRIPOS>BOND
     1    26    27    1
     2    27    23    1
     3    23    28    1
     4    28    29    1
     5    23    24   am
     6    24    25    2
     7    24    17    1
     8    17    18   ar
     9    18    19   ar
    10    19    20   ar
    11    20    21   ar
    12    21     1    1
    13     1     2    2
    14     2     3    1
    15     3     4    1
    16     4     5    1
    17     5     6    1
    18     6     7    1
    19     7     8    1
    20     3     9    1
    21     9    10    1
    22    10    11   ar
    23    11    12   ar
    24    12    13   ar
    25    13    14   ar
    26    14    15   ar
    27    21    22   ar
    28    22    17   ar
    29    15     1    1
    30     8     3    1
    31    15    10   ar
    32     6    16    1
@<TRIPOS>MOLECULE
*****
 29 32 0 0 0
SMALL
GASTEIGER

@<TRIPOS>ATOM
      1 C         141.7616  140.2081  163.6007 C.2     1  UNL1        0.0020
      2 C         140.4057  139.8523  163.0666 C.2     1  UNL1        0.0130
      3 C         139.9931  140.3140  161.7003 C.3     1  UNL1        0.1542
      4 C         139.0500  139.4966  162.5324 C.3     1  UNL1        0.0614
      5 C         137.6942  139.1409  161.9983 C.3     1  UNL1        0.0725
      6 N         137.2816  139.6025  160.6320 N.3     1  UNL1       -0.2972
      7 C         138.2247  140.4199  159.7999 C.3     1  UNL1        0.0725
      8 C         139.5805  140.7756  160.3341 C.3     1  UNL1        0.0614
      9 O         140.9363  141.1313  160.8682 O.3     1  UNL1       -0.4785
     10 C         142.2921  141.4871  161.4024 C.ar    1  UNL1        0.1386
     11 C         143.2353  142.3044  160.5702 C.ar    1  UNL1        0.0369
     12 C         144.5910  142.6602  161.1044 C.ar    1  UNL1        0.0031
     13 C         145.0036  142.1985  162.4706 C.ar    1  UNL1        0.0002
     14 C         144.0605  141.3812  163.3027 C.ar    1  UNL1        0.0030
     15 C         142.7047  141.0254  162.7686 C.ar    1  UNL1        0.0338
     16 H         136.4362  140.1604  160.7526 H       1  UNL1        0.1233
     17 C         141.8857  139.8166  167.5481 C.ar    1  UNL1        0.0536
     18 C         142.9995  138.8233  167.6995 C.ar    1  UNL1        0.0045
     19 C         143.7005  138.2916  166.4847 C.ar    1  UNL1        0.0001
     20 C         143.2879  138.7532  165.1184 C.ar    1  UNL1       -0.0000
     21 C         142.1742  139.7465  164.9670 C.ar    1  UNL1        0.0000
     22 C         141.4731  140.2782  166.1818 C.ar    1  UNL1        0.0045
     23 N         141.7033  141.5763  169.4508 N.am    1  UNL1       -0.2761
     24 C         141.1847  140.3483  168.7628 C.2     1  UNL1        0.2490
     25 O         139.9650  139.6521  169.2897 O.2     1  UNL1       -0.2699
     26 C         139.9086  143.1236  170.5160 C.3     1  UNL1        0.0233
     27 C         141.0022  142.1079  170.6656 C.3     1  UNL1        0.0938
     28 C         142.9229  142.2725  168.9239 C.3     1  UNL1        0.0938
     29 C         144.1073  142.4903  169.8182 C.3     1  UNL1        0.0233
@<TRIPOS>BOND
     1    26    27    1
     2    27    23    1
     3    23    28    1
     4    28    29    1
     5    23    24   am
     6    24    25    2
     7    24    17    1
     8    17    18   ar
     9    18    19   ar
    10    19    20   ar
    11    20    21   ar
    12    21     1    1
    13     1     2    2
    14     2     3    1
    15     3     4    1
    16     4     5    1
    17     5     6    1
    18     6     7    1
    19     7     8    1
    20     3     9    1
    21     9    10    1
    22    10    11   ar
    23    11    12   ar
    24    12    13   ar
    25    13    14   ar
    26    14    15   ar
    27    21    22   ar
    28    22    17   ar
    29    15     1    1
    30     8     3    1
    31    15    10   ar
    32     6    16    1
@<TRIPOS>MOLECULE
*****
 29 32 0 0 0
SMALL
GASTEIGER

@<TRIPOS>ATOM
      1 C         141.0132  141.4969  162.9273 C.2     1  UNL1        0.0020
      2 C         141.8348  140.6643  161.9882 C.2     1  UNL1        0.0130
      3 C         142.2831  141.2358  160.6758 C.3     1  UNL1        0.1542
      4 C         142.6564  139.8318  161.0491 C.3     1  UNL1        0.0614
      5 C         143.4781  138.9993  160.1101 C.3     1  UNL1        0.0725
      6 N         143.9263  139.5708  158.7976 N.3     1  UNL1       -0.2972
      7 C         143.5529  140.9748  158.4243 C.3     1  UNL1        0.0725
      8 C         142.7313  141.8072  159.3633 C.3     1  UNL1        0.0614
      9 O         141.9096  142.6398  160.3024 O.3     1  UNL1       -0.4785
     10 C         141.0880  143.4723  161.2415 C.ar    1  UNL1        0.1386
     11 C         140.7146  144.8763  160.8681 C.ar    1  UNL1        0.0369
     12 C         139.8930  145.7088  161.8072 C.ar    1  UNL1        0.0031
     13 C         139.4448  145.1373  163.1196 C.ar    1  UNL1        0.0002
     14 C         139.8181  143.7334  163.4930 C.ar    1  UNL1        0.0030
     15 C         140.6398  142.9008  162.5539 C.ar    1  UNL1        0.0338
     16 H         143.5525  138.9630  158.0688 H       1  UNL1        0.1233
     17 C         141.0227  140.4167  166.7461 C.ar    1  UNL1        0.0536
     18 C         139.6685  139.7824  166.8646 C.ar    1  UNL1        0.0045
     19 C         138.7626  139.7197  165.6707 C.ar    1  UNL1        0.0001
     20 C         139.2108  140.2911  164.3583 C.ar    1  UNL1       -0.0000
     21 C         140.5649  140.9254  164.2397 C.ar    1  UNL1        0.0000
     22 C         141.4709  140.9882  165.4337 C.ar    1  UNL1        0.0045
     23 N         141.8595  141.6519  168.8731 N.am    1  UNL1       -0.2761
     24 C         141.9285  140.4795  167.9400 C.2     1  UNL1        0.2490
     25 O         142.9035  139.3698  168.2008 O.2     1  UNL1       -0.2699
     26 C         144.0722  142.4456  169.9792 C.3     1  UNL1        0.0233
     27 C         142.7653  141.7147  170.0670 C.3     1  UNL1        0.0938
     28 C         140.8845  142.7616  168.6122 C.3     1  UNL1        0.0938
     29 C         140.4840  143.6849  169.7245 C.3     1  UNL1        0.0233
@<TRIPOS>BOND
     1    26    27    1
     2    27    23    1
     3    23    28    1
     4    28    29    1
     5    23    24   am
     6    24    25    2
     7    24    17    1
     8    17    18   ar
     9    18    19   ar
    10    19    20   ar
    11    20    21   ar
    12    21     1    1
    13     1     2    2
    14     2     3    1
    15     3     4    1
    16     4     5    1
    17     5     6    1
    18     6     7    1
    19     7     8    1
    20     3     9    1
    21     9    10    1
    22    10    11   ar
    23    11    12   ar
    24    12    13   ar
    25    13    14   ar
    26    14    15   ar
    27    21    22   ar
    28    22    17   ar
    29    15     1    1
    30     8     3    1
    31    15    10   ar
    32     6    16    1
