@<TRIPOS>MOLECULE
*****
 43 49 0 0 0
SMALL
GASTEIGER

@<TRIPOS>ATOM
      1 C         139.9745  140.4528  164.9052 C.ar    1  UNL1        0.0156
      2 C         141.1801  140.3907  164.0150 C.ar    1  UNL1        0.0011
      3 C         141.0846  139.7384  162.6676 C.ar    1  UNL1       -0.0029
      4 C         139.7836  139.1482  162.2105 C.ar    1  UNL1       -0.0061
      5 C         138.5780  139.2103  163.1008 C.ar    1  UNL1       -0.0029
      6 C         138.6734  139.8626  164.4481 C.ar    1  UNL1        0.0011
      7 O         140.1965  144.5482  170.4214 O.2     1  UNL1       -0.2651
      8 C         140.3560  143.0621  170.2947 C.ar    1  UNL1        0.2806
      9 N         140.6108  142.2284  171.5152 N.ar    1  UNL1       -0.2062
     10 C         140.7703  140.7423  171.3885 C.ar    1  UNL1        0.1037
     11 C         140.6749  140.0899  170.0412 C.ar    1  UNL1        0.0378
     12 C         140.4201  140.9237  168.8206 C.ar    1  UNL1        0.0628
     13 N         140.3247  140.2714  167.4732 N.ar    1  UNL1       -0.3530
     14 C         140.0698  141.1051  166.2526 C.ar    1  UNL1        0.0565
     15 C         139.9104  142.5912  166.3794 C.ar    1  UNL1        0.0158
     16 C         140.0057  143.2436  167.7267 C.ar    1  UNL1        0.0077
     17 C         140.2606  142.4098  168.9474 C.ar    1  UNL1        0.0735
     18 H         140.4294  139.2960  167.3900 H       1  UNL1        0.1659
     19 C         139.6555  143.4250  165.1587 C.ar    1  UNL1        0.0014
     20 C         138.2625  143.5575  164.6185 C.ar    1  UNL1        0.0000
     21 C         138.0076  144.3913  163.3979 C.ar    1  UNL1        0.0000
     22 C         139.1457  145.0925  162.7175 C.ar    1  UNL1        0.0000
     23 C         140.5387  144.9599  163.2578 C.ar    1  UNL1        0.0000
     24 C         140.7936  144.1262  164.4784 C.ar    1  UNL1        0.0000
     25 C         139.6882  138.4959  160.8631 C.3     1  UNL1        0.0991
     26 N         140.7088  138.8024  159.8075 N.3     1  UNL1       -0.2689
     27 C         140.4290  139.8558  158.7770 C.3     1  UNL1        0.0728
     28 C         141.4496  140.1623  157.7215 C.3     1  UNL1        0.0249
     29 C         142.7502  139.4153  157.6963 C.3     1  UNL1        0.0613
     30 C         143.0301  138.3619  158.7268 C.3     1  UNL1        0.0249
     31 C         142.0093  138.0554  159.7824 C.3     1  UNL1        0.0728
     32 C         143.7708  139.7218  156.6407 C.ar    1  UNL1        0.1396
     33 N         144.3882  138.7323  155.6975 N.ar    1  UNL1       -0.1335
     34 N         145.3522  139.4705  154.8168 N.ar    1  UNL1       -0.1277
     35 C         145.3307  140.9164  155.2158 C.ar    1  UNL1        0.1807
     36 N         144.3534  141.0716  156.3430 N.ar    1  UNL1       -0.3234
     37 H         144.1329  141.9120  156.8061 H       1  UNL1        0.1686
     38 C         146.1438  142.0141  154.5963 C.ar    1  UNL1        0.1169
     39 C         147.6317  141.8683  154.4746 C.ar    1  UNL1        0.0223
     40 C         148.4447  142.9660  153.8551 C.ar    1  UNL1        0.0032
     41 C         147.7699  144.2096  153.3572 C.ar    1  UNL1        0.0207
     42 C         146.2820  144.3556  153.4789 C.ar    1  UNL1        0.0989
     43 N         145.4689  143.2578  154.0984 N.ar    1  UNL1       -0.2407
@<TRIPOS>BOND
     1     7     8    2
     2     8     9   ar
     3     9    10   ar
     4    10    11   ar
     5    11    12   ar
     6    12    13   ar
     7    13    14   ar
     8    14     1    1
     9     1     2   ar
    10     2     3   ar
    11     3     4   ar
    12     4    25    1
    13    25    26    1
    14    26    27    1
    15    27    28    1
    16    28    29    1
    17    29    32    1
    18    32    33   ar
    19    33    34   ar
    20    34    35   ar
    21    35    38    1
    22    38    39   ar
    23    39    40   ar
    24    40    41   ar
    25    41    42   ar
    26    42    43   ar
    27    35    36   ar
    28    29    30    1
    29    30    31    1
    30     4     5   ar
    31     5     6   ar
    32    14    15   ar
    33    15    19    1
    34    19    20   ar
    35    20    21   ar
    36    21    22   ar
    37    22    23   ar
    38    23    24   ar
    39    15    16   ar
    40    16    17   ar
    41    17     8   ar
    42    17    12    1
    43     6     1   ar
    44    24    19   ar
    45    31    26    1
    46    36    32   ar
    47    43    38   ar
    48    13    18    1
    49    36    37    1
@<TRIPOS>MOLECULE
*****
 43 49 0 0 0
SMALL
GASTEIGER

@<TRIPOS>ATOM
      1 C         142.6518  141.4127  165.0744 C.ar    1  UNL1        0.0156
      2 C         144.0032  140.8620  164.7276 C.ar    1  UNL1        0.0011
      3 C         144.5667  141.0680  163.3529 C.ar    1  UNL1       -0.0029
      4 C         143.7788  141.8247  162.3249 C.ar    1  UNL1       -0.0061
      5 C         142.4273  142.3754  162.6718 C.ar    1  UNL1       -0.0029
      6 C         141.8638  142.1694  164.0465 C.ar    1  UNL1        0.0011
      7 O         139.3794  139.5136  170.8134 O.2     1  UNL1       -0.2651
      8 C         140.3975  140.5888  170.5735 C.ar    1  UNL1        0.2806
      9 N         140.8519  141.4580  171.7083 N.ar    1  UNL1       -0.2062
     10 C         141.8700  142.5332  171.4685 C.ar    1  UNL1        0.1037
     11 C         142.4336  142.7392  170.0937 C.ar    1  UNL1        0.0378
     12 C         141.9791  141.8700  168.9589 C.ar    1  UNL1        0.0628
     13 N         142.5427  142.0759  167.5841 N.ar    1  UNL1       -0.3530
     14 C         142.0882  141.2068  166.4492 C.ar    1  UNL1        0.0565
     15 C         141.0701  140.1316  166.6891 C.ar    1  UNL1        0.0158
     16 C         140.5066  139.9256  168.0638 C.ar    1  UNL1        0.0077
     17 C         140.9610  140.7948  169.1988 C.ar    1  UNL1        0.0735
     18 H         143.2109  142.7816  167.4266 H       1  UNL1        0.1659
     19 C         140.6157  139.2624  165.5542 C.ar    1  UNL1        0.0014
     20 C         139.2790  139.4999  164.9162 C.ar    1  UNL1        0.0000
     21 C         138.8246  138.6308  163.7814 C.ar    1  UNL1        0.0000
     22 C         139.7067  137.5241  163.2845 C.ar    1  UNL1        0.0000
     23 C         141.0433  137.2865  163.9224 C.ar    1  UNL1        0.0000
     24 C         141.4978  138.1556  165.0573 C.ar    1  UNL1        0.0000
     25 C         144.3424  142.0307  160.9501 C.3     1  UNL1        0.0991
     26 N         144.0198  141.0589  159.8540 N.3     1  UNL1       -0.2689
     27 C         143.3725  139.7461  160.1820 C.3     1  UNL1        0.0728
     28 C         143.0500  138.7743  159.0859 C.3     1  UNL1        0.0249
     29 C         143.3747  139.1153  157.6616 C.3     1  UNL1        0.0613
     30 C         144.0220  140.4281  157.3336 C.3     1  UNL1        0.0249
     31 C         144.3445  141.3999  158.4299 C.3     1  UNL1        0.0728
     32 C         143.0522  138.1435  156.5655 C.ar    1  UNL1        0.1396
     33 N         142.4039  138.4766  155.2545 N.ar    1  UNL1       -0.1335
     34 N         142.2724  137.2069  154.4666 N.ar    1  UNL1       -0.1277
     35 C         142.8393  136.0891  155.2908 C.ar    1  UNL1        0.1807
     36 N         143.3212  136.6680  156.5879 N.ar    1  UNL1       -0.3234
     37 H         143.7405  136.1673  157.3247 H       1  UNL1        0.1686
     38 C         142.9115  134.6459  154.8884 C.ar    1  UNL1        0.1169
     39 C         142.1828  134.1706  153.6666 C.ar    1  UNL1        0.0223
     40 C         142.2550  132.7274  153.2642 C.ar    1  UNL1        0.0032
     41 C         143.0561  131.7595  154.0836 C.ar    1  UNL1        0.0207
     42 C         143.7849  132.2348  155.3055 C.ar    1  UNL1        0.0989
     43 N         143.7126  133.6780  155.7079 N.ar    1  UNL1       -0.2407
@<TRIPOS>BOND
     1     7     8    2
     2     8     9   ar
     3     9    10   ar
     4    10    11   ar
     5    11    12   ar
     6    12    13   ar
     7    13    14   ar
     8    14     1    1
     9     1     2   ar
    10     2     3   ar
    11     3     4   ar
    12     4    25    1
    13    25    26    1
    14    26    27    1
    15    27    28    1
    16    28    29    1
    17    29    32    1
    18    32    33   ar
    19    33    34   ar
    20    34    35   ar
    21    35    38    1
    22    38    39   ar
    23    39    40   ar
    24    40    41   ar
    25    41    42   ar
    26    42    43   ar
    27    35    36   ar
    28    29    30    1
    29    30    31    1
    30     4     5   ar
    31     5     6   ar
    32    14    15   ar
    33    15    19    1
    34    19    20   ar
    35    20    21   ar
    36    21    22   ar
    37    22    23   ar
    38    23    24   ar
    39    15    16   ar
    40    16    17   ar
    41    17     8   ar
    42    17    12    1
    43     6     1   ar
    44    24    19   ar
    45    31    26    1
    46    36    32   ar
    47    43    38   ar
    48    13    18    1
    49    36    37    1
@<TRIPOS>MOLECULE
*****
 43 49 0 0 0
SMALL
GASTEIGER

@<TRIPOS>ATOM
      1 C         141.8825  141.0653  164.0938 C.ar    1  UNL1        0.0156
      2 C         142.6046  142.3025  163.6491 C.ar    1  UNL1        0.0011
      3 C         142.9480  142.4909  162.2011 C.ar    1  UNL1       -0.0029
      4 C         142.5692  141.4420  161.1979 C.ar    1  UNL1       -0.0061
      5 C         141.8471  140.2048  161.6427 C.ar    1  UNL1       -0.0029
      6 C         141.5038  140.0165  163.0906 C.ar    1  UNL1        0.0011
      7 O         139.2982  140.9838  170.4629 O.2     1  UNL1       -0.2651
      8 C         140.5088  140.3119  169.8857 C.ar    1  UNL1        0.2806
      9 N         141.3758  139.4516  170.7563 N.ar    1  UNL1       -0.2062
     10 C         142.5864  138.7798  170.1791 C.ar    1  UNL1        0.1037
     11 C         142.9298  138.9681  168.7312 C.ar    1  UNL1        0.0378
     12 C         142.0627  139.8283  167.8605 C.ar    1  UNL1        0.0628
     13 N         142.4061  140.0167  166.4125 N.ar    1  UNL1       -0.3530
     14 C         141.5391  140.8769  165.5418 C.ar    1  UNL1        0.0565
     15 C         140.3285  141.5488  166.1191 C.ar    1  UNL1        0.0158
     16 C         139.9851  141.3605  167.5670 C.ar    1  UNL1        0.0077
     17 C         140.8522  140.5002  168.4377 C.ar    1  UNL1        0.0735
     18 H         143.2006  139.5757  166.0336 H       1  UNL1        0.1659
     19 C         139.4614  142.4091  165.2483 C.ar    1  UNL1        0.0014
     20 C         139.6512  143.8970  165.2374 C.ar    1  UNL1        0.0000
     21 C         138.7842  144.7573  164.3667 C.ar    1  UNL1        0.0000
     22 C         137.7274  144.1296  163.5069 C.ar    1  UNL1        0.0000
     23 C         137.5377  142.6417  163.5178 C.ar    1  UNL1        0.0000
     24 C         138.4047  141.7815  164.3885 C.ar    1  UNL1        0.0000
     25 C         142.9127  141.6304  159.7499 C.3     1  UNL1        0.0991
     26 N         142.1511  142.6220  158.9214 N.3     1  UNL1       -0.2689
     27 C         140.8456  142.2304  158.2949 C.3     1  UNL1        0.0728
     28 C         140.0840  143.2221  157.4663 C.3     1  UNL1        0.0249
     29 C         140.6279  144.6054  157.2642 C.3     1  UNL1        0.0613
     30 C         141.9333  144.9970  157.8907 C.3     1  UNL1        0.0249
     31 C         142.6949  144.0052  158.7193 C.3     1  UNL1        0.0728
     32 C         139.8663  145.5970  156.4356 C.ar    1  UNL1        0.1396
     33 N         138.6315  145.3118  155.6332 N.ar    1  UNL1       -0.1335
     34 N         138.2078  146.5865  154.9656 N.ar    1  UNL1       -0.1277
     35 C         139.1808  147.6596  155.3555 C.ar    1  UNL1        0.1807
     36 N         140.2058  147.0480  156.2640 N.ar    1  UNL1       -0.3234
     37 H         140.9675  147.5167  156.6754 H       1  UNL1        0.1686
     38 C         139.1365  149.0925  154.9143 C.ar    1  UNL1        0.1169
     39 C         139.7084  149.4859  153.5847 C.ar    1  UNL1        0.0223
     40 C         139.6641  150.9189  153.1435 C.ar    1  UNL1        0.0032
     41 C         139.0479  151.9584  154.0320 C.ar    1  UNL1        0.0207
     42 C         138.4760  151.5651  155.3617 C.ar    1  UNL1        0.0989
     43 N         138.5203  150.1322  155.8029 N.ar    1  UNL1       -0.2407
@<TRIPOS>BOND
     1     7     8    2
     2     8     9   ar
     3     9    10   ar
     4    10    11   ar
     5    11    12   ar
     6    12    13   ar
     7    13    14   ar
     8    14     1    1
     9     1     2   ar
    10     2     3   ar
    11     3     4   ar
    12     4    25    1
    13    25    26    1
    14    26    27    1
    15    27    28    1
    16    28    29    1
    17    29    32    1
    18    32    33   ar
    19    33    34   ar
    20    34    35   ar
    21    35    38    1
    22    38    39   ar
    23    39    40   ar
    24    40    41   ar
    25    41    42   ar
    26    42    43   ar
    27    35    36   ar
    28    29    30    1
    29    30    31    1
    30     4     5   ar
    31     5     6   ar
    32    14    15   ar
    33    15    19    1
    34    19    20   ar
    35    20    21   ar
    36    21    22   ar
    37    22    23   ar
    38    23    24   ar
    39    15    16   ar
    40    16    17   ar
    41    17     8   ar
    42    17    12    1
    43     6     1   ar
    44    24    19   ar
    45    31    26    1
    46    36    32   ar
    47    43    38   ar
    48    13    18    1
    49    36    37    1
@<TRIPOS>MOLECULE
*****
 43 49 0 0 0
SMALL
GASTEIGER

@<TRIPOS>ATOM
      1 C         141.9275  141.4056  164.6981 C.ar    1  UNL1        0.0156
      2 C         142.6184  140.2966  163.9614 C.ar    1  UNL1        0.0011
      3 C         143.0884  140.5106  162.5531 C.ar    1  UNL1       -0.0029
      4 C         142.8675  141.8335  161.8815 C.ar    1  UNL1       -0.0061
      5 C         142.1767  142.9425  162.6182 C.ar    1  UNL1       -0.0029
      6 C         141.7066  142.7286  164.0265 C.ar    1  UNL1        0.0011
      7 O         138.8645  139.6678  170.6013 O.2     1  UNL1       -0.2651
      8 C         140.0472  140.5499  170.3313 C.ar    1  UNL1        0.2806
      9 N         140.7599  141.2182  171.4695 N.ar    1  UNL1       -0.2062
     10 C         141.9427  142.1003  171.1994 C.ar    1  UNL1        0.1037
     11 C         142.4127  142.3142  169.7911 C.ar    1  UNL1        0.0378
     12 C         141.7001  141.6460  168.6530 C.ar    1  UNL1        0.0628
     13 N         142.1701  141.8599  167.2446 N.ar    1  UNL1       -0.3530
     14 C         141.4574  141.1917  166.1064 C.ar    1  UNL1        0.0565
     15 C         140.2747  140.3096  166.3765 C.ar    1  UNL1        0.0158
     16 C         139.8046  140.0956  167.7847 C.ar    1  UNL1        0.0077
     17 C         140.5173  140.7639  168.9230 C.ar    1  UNL1        0.0735
     18 H         142.9464  142.4389  167.0673 H       1  UNL1        0.1659
     19 C         139.5620  139.6413  165.2382 C.ar    1  UNL1        0.0014
     20 C         138.6080  140.4255  164.3868 C.ar    1  UNL1        0.0000
     21 C         137.8953  139.7574  163.2486 C.ar    1  UNL1        0.0000
     22 C         138.1367  138.3050  162.9617 C.ar    1  UNL1        0.0000
     23 C         139.0907  137.5208  163.8131 C.ar    1  UNL1        0.0000
     24 C         139.8034  138.1890  164.9513 C.ar    1  UNL1        0.0000
     25 C         143.3376  142.0474  160.4732 C.3     1  UNL1        0.0991
     26 N         142.5449  142.9156  159.5416 N.3     1  UNL1       -0.2689
     27 C         141.0471  142.9294  159.6215 C.3     1  UNL1        0.0728
     28 C         140.2543  143.7976  158.6900 C.3     1  UNL1        0.0249
     29 C         140.9594  144.6519  157.6784 C.3     1  UNL1        0.0613
     30 C         142.4572  144.6380  157.5985 C.3     1  UNL1        0.0249
     31 C         143.2499  143.7698  158.5302 C.3     1  UNL1        0.0728
     32 C         140.1666  145.5200  156.7469 C.ar    1  UNL1        0.1396
     33 N         138.9724  145.0933  155.9459 N.ar    1  UNL1       -0.1335
     34 N         138.4966  146.2768  155.1567 N.ar    1  UNL1       -0.1277
     35 C         139.3969  147.4351  155.4699 C.ar    1  UNL1        0.1807
     36 N         140.4290  146.9673  156.4527 N.ar    1  UNL1       -0.3234
     37 H         141.1517  147.5142  156.8372 H       1  UNL1        0.1686
     38 C         139.2846  148.8182  154.9004 C.ar    1  UNL1        0.1169
     39 C         139.7838  149.1014  153.5145 C.ar    1  UNL1        0.0223
     40 C         139.6716  150.4845  152.9450 C.ar    1  UNL1        0.0032
     41 C         139.0602  151.5844  153.7612 C.ar    1  UNL1        0.0207
     42 C         138.5611  151.3013  155.1471 C.ar    1  UNL1        0.0989
     43 N         138.6733  149.9182  155.7167 N.ar    1  UNL1       -0.2407
@<TRIPOS>BOND
     1     7     8    2
     2     8     9   ar
     3     9    10   ar
     4    10    11   ar
     5    11    12   ar
     6    12    13   ar
     7    13    14   ar
     8    14     1    1
     9     1     2   ar
    10     2     3   ar
    11     3     4   ar
    12     4    25    1
    13    25    26    1
    14    26    27    1
    15    27    28    1
    16    28    29    1
    17    29    32    1
    18    32    33   ar
    19    33    34   ar
    20    34    35   ar
    21    35    38    1
    22    38    39   ar
    23    39    40   ar
    24    40    41   ar
    25    41    42   ar
    26    42    43   ar
    27    35    36   ar
    28    29    30    1
    29    30    31    1
    30     4     5   ar
    31     5     6   ar
    32    14    15   ar
    33    15    19    1
    34    19    20   ar
    35    20    21   ar
    36    21    22   ar
    37    22    23   ar
    38    23    24   ar
    39    15    16   ar
    40    16    17   ar
    41    17     8   ar
    42    17    12    1
    43     6     1   ar
    44    24    19   ar
    45    31    26    1
    46    36    32   ar
    47    43    38   ar
    48    13    18    1
    49    36    37    1
@<TRIPOS>MOLECULE
*****
 43 49 0 0 0
SMALL
GASTEIGER

@<TRIPOS>ATOM
      1 C         140.6507  140.6096  164.1035 C.ar    1  UNL1        0.0156
      2 C         140.8030  139.3936  163.2387 C.ar    1  UNL1        0.0011
      3 C         140.7099  139.5180  161.7468 C.ar    1  UNL1       -0.0029
      4 C         140.4646  140.8583  161.1197 C.ar    1  UNL1       -0.0061
      5 C         140.3123  142.0744  161.9846 C.ar    1  UNL1       -0.0029
      6 C         140.4053  141.9500  163.4765 C.ar    1  UNL1        0.0011
      7 O         142.3432  140.2993  170.7586 O.2     1  UNL1       -0.2651
      8 C         141.0231  140.1124  170.0713 C.ar    1  UNL1        0.2806
      9 N         139.7961  139.8012  170.8760 N.ar    1  UNL1       -0.2062
     10 C         138.4759  139.6142  170.1887 C.ar    1  UNL1        0.1037
     11 C         138.3828  139.7385  168.6968 C.ar    1  UNL1        0.0378
     12 C         139.6098  140.0498  167.8922 C.ar    1  UNL1        0.0628
     13 N         139.5168  140.1741  166.4002 N.ar    1  UNL1       -0.3530
     14 C         140.7438  140.4853  165.5955 C.ar    1  UNL1        0.0565
     15 C         142.0639  140.6722  166.2828 C.ar    1  UNL1        0.0158
     16 C         142.1570  140.5479  167.7747 C.ar    1  UNL1        0.0077
     17 C         140.9300  140.2367  168.5794 C.ar    1  UNL1        0.0735
     18 H         138.6503  140.0514  165.9491 H       1  UNL1        0.1659
     19 C         143.2910  140.9835  165.4780 C.ar    1  UNL1        0.0014
     20 C         143.7004  142.4093  165.2559 C.ar    1  UNL1        0.0000
     21 C         144.9274  142.7206  164.4512 C.ar    1  UNL1        0.0000
     22 C         145.7449  141.6060  163.8686 C.ar    1  UNL1        0.0000
     23 C         145.3355  140.1802  164.0908 C.ar    1  UNL1        0.0000
     24 C         144.1085  139.8689  164.8955 C.ar    1  UNL1        0.0000
     25 C         140.3715  140.9827  159.6277 C.3     1  UNL1        0.0991
     26 N         140.6243  139.7868  158.7583 N.3     1  UNL1       -0.2689
     27 C         142.0312  139.3637  158.4554 C.3     1  UNL1        0.0728
     28 C         142.2840  138.1679  157.5859 C.3     1  UNL1        0.0249
     29 C         141.1299  137.3951  157.0193 C.3     1  UNL1        0.0613
     30 C         139.7231  137.8182  157.3222 C.3     1  UNL1        0.0249
     31 C         139.4703  139.0141  158.1917 C.3     1  UNL1        0.0728
     32 C         141.3827  136.1992  156.1498 C.ar    1  UNL1        0.1396
     33 N         140.6963  135.8918  154.8521 N.ar    1  UNL1       -0.1335
     34 N         141.2557  134.6034  154.3256 N.ar    1  UNL1       -0.1277
     35 C         142.2879  134.1146  155.2981 C.ar    1  UNL1        0.1807
     36 N         142.3664  135.1008  156.4255 N.ar    1  UNL1       -0.3234
     37 H         142.9594  135.0383  157.2089 H       1  UNL1        0.1686
     38 C         143.0991  132.8598  155.1662 C.ar    1  UNL1        0.1169
     39 C         144.0934  132.4944  156.2282 C.ar    1  UNL1        0.0223
     40 C         144.9046  131.2396  156.0964 C.ar    1  UNL1        0.0032
     41 C         144.7216  130.3502  154.9025 C.ar    1  UNL1        0.0207
     42 C         143.7273  130.7155  153.8405 C.ar    1  UNL1        0.0989
     43 N         142.9161  131.9703  153.9723 N.ar    1  UNL1       -0.2407
@<TRIPOS>BOND
     1     7     8    2
     2     8     9   ar
     3     9    10   ar
     4    10    11   ar
     5    11    12   ar
     6    12    13   ar
     7    13    14   ar
     8    14     1    1
     9     1     2   ar
    10     2     3   ar
    11     3     4   ar
    12     4    25    1
    13    25    26    1
    14    26    27    1
    15    27    28    1
    16    28    29    1
    17    29    32    1
    18    32    33   ar
    19    33    34   ar
    20    34    35   ar
    21    35    38    1
    22    38    39   ar
    23    39    40   ar
    24    40    41   ar
    25    41    42   ar
    26    42    43   ar
    27    35    36   ar
    28    29    30    1
    29    30    31    1
    30     4     5   ar
    31     5     6   ar
    32    14    15   ar
    33    15    19    1
    34    19    20   ar
    35    20    21   ar
    36    21    22   ar
    37    22    23   ar
    38    23    24   ar
    39    15    16   ar
    40    16    17   ar
    41    17     8   ar
    42    17    12    1
    43     6     1   ar
    44    24    19   ar
    45    31    26    1
    46    36    32   ar
    47    43    38   ar
    48    13    18    1
    49    36    37    1
@<TRIPOS>MOLECULE
*****
 43 49 0 0 0
SMALL
GASTEIGER

@<TRIPOS>ATOM
      1 C         142.3911  140.4522  164.9343 C.ar    1  UNL1        0.0156
      2 C         143.1104  139.2320  164.4408 C.ar    1  UNL1        0.0011
      3 C         143.7923  139.2524  163.1050 C.ar    1  UNL1       -0.0029
      4 C         143.7549  140.4931  162.2627 C.ar    1  UNL1       -0.0061
      5 C         143.0356  141.7133  162.7562 C.ar    1  UNL1       -0.0029
      6 C         142.3537  141.6928  164.0921 C.ar    1  UNL1        0.0011
      7 O         138.2372  139.9175  170.3850 O.2     1  UNL1       -0.2651
      8 C         139.6631  140.3706  170.2778 C.ar    1  UNL1        0.2806
      9 N         140.4070  140.8033  171.5063 N.ar    1  UNL1       -0.2062
     10 C         141.8329  141.2564  171.3990 C.ar    1  UNL1        0.1037
     11 C         142.5149  141.2768  170.0632 C.ar    1  UNL1        0.0378
     12 C         141.7710  140.8441  168.8347 C.ar    1  UNL1        0.0628
     13 N         142.4530  140.8645  167.4988 N.ar    1  UNL1       -0.3530
     14 C         141.7091  140.4318  166.2702 C.ar    1  UNL1        0.0565
     15 C         140.2832  139.9787  166.3775 C.ar    1  UNL1        0.0158
     16 C         139.6012  139.9583  167.7133 C.ar    1  UNL1        0.0077
     17 C         140.3451  140.3910  168.9420 C.ar    1  UNL1        0.0735
     18 H         143.3889  141.1619  167.4283 H       1  UNL1        0.1659
     19 C         139.5393  139.5460  165.1489 C.ar    1  UNL1        0.0014
     20 C         138.7521  140.5476  164.3571 C.ar    1  UNL1        0.0000
     21 C         138.0082  140.1150  163.1286 C.ar    1  UNL1        0.0000
     22 C         138.0515  138.6807  162.6918 C.ar    1  UNL1        0.0000
     23 C         138.8388  137.6790  163.4836 C.ar    1  UNL1        0.0000
     24 C         139.5826  138.1117  164.7121 C.ar    1  UNL1        0.0000
     25 C         144.4369  140.5135  160.9268 C.3     1  UNL1        0.0991
     26 N         143.8005  141.2262  159.7706 N.3     1  UNL1       -0.2689
     27 C         142.4500  140.7985  159.2774 C.3     1  UNL1        0.0728
     28 C         141.8135  141.5113  158.1212 C.3     1  UNL1        0.0249
     29 C         142.5275  142.6518  157.4581 C.3     1  UNL1        0.0613
     30 C         143.8780  143.0794  157.9513 C.3     1  UNL1        0.0249
     31 C         144.5145  142.3666  159.1076 C.3     1  UNL1        0.0728
     32 C         141.8910  143.3645  156.3019 C.ar    1  UNL1        0.1396
     33 N         141.2744  142.7163  155.0980 N.ar    1  UNL1       -0.1335
     34 N         140.7617  143.8018  154.1986 N.ar    1  UNL1       -0.1277
     35 C         141.0614  145.1209  154.8468 C.ar    1  UNL1        0.1807
     36 N         141.7594  144.8507  156.1467 N.ar    1  UNL1       -0.3234
     37 H         142.0756  145.5295  156.7858 H       1  UNL1        0.1686
     38 C         140.7227  146.4729  154.2923 C.ar    1  UNL1        0.1169
     39 C         139.8591  147.4121  155.0810 C.ar    1  UNL1        0.0223
     40 C         139.5203  148.7640  154.5266 C.ar    1  UNL1        0.0032
     41 C         140.0451  149.1768  153.1835 C.ar    1  UNL1        0.0207
     42 C         140.9087  148.2377  152.3947 C.ar    1  UNL1        0.0989
     43 N         141.2475  146.8857  152.9491 N.ar    1  UNL1       -0.2407
@<TRIPOS>BOND
     1     7     8    2
     2     8     9   ar
     3     9    10   ar
     4    10    11   ar
     5    11    12   ar
     6    12    13   ar
     7    13    14   ar
     8    14     1    1
     9     1     2   ar
    10     2     3   ar
    11     3     4   ar
    12     4    25    1
    13    25    26    1
    14    26    27    1
    15    27    28    1
    16    28    29    1
    17    29    32    1
    18    32    33   ar
    19    33    34   ar
    20    34    35   ar
    21    35    38    1
    22    38    39   ar
    23    39    40   ar
    24    40    41   ar
    25    41    42   ar
    26    42    43   ar
    27    35    36   ar
    28    29    30    1
    29    30    31    1
    30     4     5   ar
    31     5     6   ar
    32    14    15   ar
    33    15    19    1
    34    19    20   ar
    35    20    21   ar
    36    21    22   ar
    37    22    23   ar
    38    23    24   ar
    39    15    16   ar
    40    16    17   ar
    41    17     8   ar
    42    17    12    1
    43     6     1   ar
    44    24    19   ar
    45    31    26    1
    46    36    32   ar
    47    43    38   ar
    48    13    18    1
    49    36    37    1
@<TRIPOS>MOLECULE
*****
 43 49 0 0 0
SMALL
GASTEIGER

@<TRIPOS>ATOM
      1 C         141.3783  140.0533  164.9657 C.ar    1  UNL1        0.0156
      2 C         141.9891  138.7384  164.5810 C.ar    1  UNL1        0.0011
      3 C         141.7129  138.1500  163.2292 C.ar    1  UNL1       -0.0029
      4 C         140.8258  138.8764  162.2621 C.ar    1  UNL1       -0.0061
      5 C         140.2150  140.1912  162.6467 C.ar    1  UNL1       -0.0029
      6 C         140.4912  140.7797  163.9985 C.ar    1  UNL1        0.0011
      7 O         143.4544  143.5418  170.5128 O.2     1  UNL1       -0.2651
      8 C         142.4831  142.4073  170.3729 C.ar    1  UNL1        0.2806
      9 N         141.7880  141.8614  171.5848 N.ar    1  UNL1       -0.2062
     10 C         140.8167  140.7270  171.4449 C.ar    1  UNL1        0.1037
     11 C         140.5405  140.1384  170.0932 C.ar    1  UNL1        0.0378
     12 C         141.2356  140.6844  168.8813 C.ar    1  UNL1        0.0628
     13 N         140.9594  140.0959  167.5294 N.ar    1  UNL1       -0.3530
     14 C         141.6545  140.6418  166.3175 C.ar    1  UNL1        0.0565
     15 C         142.6258  141.7762  166.4574 C.ar    1  UNL1        0.0158
     16 C         142.9020  142.3647  167.8092 C.ar    1  UNL1        0.0077
     17 C         142.2069  141.8188  169.0211 C.ar    1  UNL1        0.0735
     18 H         140.3218  139.3513  167.4376 H       1  UNL1        0.1659
     19 C         143.3209  142.3222  165.2454 C.ar    1  UNL1        0.0014
     20 C         142.8644  143.6154  164.6379 C.ar    1  UNL1        0.0000
     21 C         143.5594  144.1613  163.4259 C.ar    1  UNL1        0.0000
     22 C         144.7110  143.4140  162.8216 C.ar    1  UNL1        0.0000
     23 C         145.1676  142.1208  163.4291 C.ar    1  UNL1        0.0000
     24 C         144.4725  141.5749  164.6410 C.ar    1  UNL1        0.0000
     25 C         140.5496  138.2879  160.9102 C.3     1  UNL1        0.0991
     26 N         141.4191  138.6499  159.7428 N.3     1  UNL1       -0.2689
     27 C         142.6399  139.4962  159.9508 C.3     1  UNL1        0.0728
     28 C         143.5094  139.8582  158.7833 C.3     1  UNL1        0.0249
     29 C         143.1580  139.3739  157.4078 C.3     1  UNL1        0.0613
     30 C         141.9371  138.5276  157.1998 C.3     1  UNL1        0.0249
     31 C         141.0676  138.1656  158.3673 C.3     1  UNL1        0.0728
     32 C         144.0274  139.7359  156.2404 C.ar    1  UNL1        0.1396
     33 N         144.1928  138.9356  154.9825 N.ar    1  UNL1       -0.1335
     34 N         145.1517  139.6668  154.0905 N.ar    1  UNL1       -0.1277
     35 C         145.5791  140.9192  154.7971 C.ar    1  UNL1        0.1807
     36 N         144.8842  140.9618  156.1257 N.ar    1  UNL1       -0.3234
     37 H         144.9746  141.6701  156.8035 H       1  UNL1        0.1686
     38 C         146.5336  141.9481  154.2679 C.ar    1  UNL1        0.1169
     39 C         148.0127  141.7158  154.3583 C.ar    1  UNL1        0.0223
     40 C         148.9673  142.7447  153.8291 C.ar    1  UNL1        0.0032
     41 C         148.4428  144.0059  153.2094 C.ar    1  UNL1        0.0207
     42 C         146.9637  144.2383  153.1190 C.ar    1  UNL1        0.0989
     43 N         146.0091  143.2094  153.6482 N.ar    1  UNL1       -0.2407
@<TRIPOS>BOND
     1     7     8    2
     2     8     9   ar
     3     9    10   ar
     4    10    11   ar
     5    11    12   ar
     6    12    13   ar
     7    13    14   ar
     8    14     1    1
     9     1     2   ar
    10     2     3   ar
    11     3     4   ar
    12     4    25    1
    13    25    26    1
    14    26    27    1
    15    27    28    1
    16    28    29    1
    17    29    32    1
    18    32    33   ar
    19    33    34   ar
    20    34    35   ar
    21    35    38    1
    22    38    39   ar
    23    39    40   ar
    24    40    41   ar
    25    41    42   ar
    26    42    43   ar
    27    35    36   ar
    28    29    30    1
    29    30    31    1
    30     4     5   ar
    31     5     6   ar
    32    14    15   ar
    33    15    19    1
    34    19    20   ar
    35    20    21   ar
    36    21    22   ar
    37    22    23   ar
    38    23    24   ar
    39    15    16   ar
    40    16    17   ar
    41    17     8   ar
    42    17    12    1
    43     6     1   ar
    44    24    19   ar
    45    31    26    1
    46    36    32   ar
    47    43    38   ar
    48    13    18    1
    49    36    37    1
@<TRIPOS>MOLECULE
*****
 43 49 0 0 0
SMALL
GASTEIGER

@<TRIPOS>ATOM
      1 C         139.8173  140.3367  164.9415 C.ar    1  UNL1        0.0156
      2 C         140.9850  140.1667  164.0156 C.ar    1  UNL1        0.0011
      3 C         140.7962  139.5008  162.6849 C.ar    1  UNL1       -0.0029
      4 C         139.4397  139.0048  162.2801 C.ar    1  UNL1       -0.0061
      5 C         138.2720  139.1747  163.2061 C.ar    1  UNL1       -0.0029
      6 C         138.4608  139.8407  164.5368 C.ar    1  UNL1        0.0011
      7 O         140.5465  144.4970  170.3647 O.2     1  UNL1       -0.2651
      8 C         140.5724  143.0006  170.2645 C.ar    1  UNL1        0.2806
      9 N         140.7871  142.1701  171.4950 N.ar    1  UNL1       -0.2062
     10 C         140.8131  140.6737  171.3948 C.ar    1  UNL1        0.1037
     11 C         140.6243  140.0077  170.0642 C.ar    1  UNL1        0.0378
     12 C         140.4096  140.8382  168.8336 C.ar    1  UNL1        0.0628
     13 N         140.2208  140.1722  167.5028 N.ar    1  UNL1       -0.3530
     14 C         140.0061  141.0027  166.2723 C.ar    1  UNL1        0.0565
     15 C         139.9802  142.4991  166.3725 C.ar    1  UNL1        0.0158
     16 C         140.1689  143.1651  167.7032 C.ar    1  UNL1        0.0077
     17 C         140.3836  142.3346  168.9338 C.ar    1  UNL1        0.0735
     18 H         140.2378  139.1901  167.4371 H       1  UNL1        0.1659
     19 C         139.7654  143.3295  165.1419 C.ar    1  UNL1        0.0014
     20 C         138.3754  143.5668  164.6304 C.ar    1  UNL1        0.0000
     21 C         138.1607  144.3972  163.3998 C.ar    1  UNL1        0.0000
     22 C         139.3359  144.9903  162.6808 C.ar    1  UNL1        0.0000
     23 C         140.7259  144.7531  163.1924 C.ar    1  UNL1        0.0000
     24 C         140.9406  143.9227  164.4229 C.ar    1  UNL1        0.0000
     25 C         139.2509  138.3388  160.9494 C.3     1  UNL1        0.0991
     26 N         139.4132  139.1297  159.6852 N.3     1  UNL1       -0.2689
     27 C         138.3674  140.1279  159.2855 C.3     1  UNL1        0.0728
     28 C         138.5296  140.9187  158.0213 C.3     1  UNL1        0.0249
     29 C         139.7378  140.7114  157.1568 C.3     1  UNL1        0.0613
     30 C         140.7836  139.7131  157.5564 C.3     1  UNL1        0.0249
     31 C         140.6213  138.9223  158.8207 C.3     1  UNL1        0.0728
     32 C         139.9001  141.5022  155.8926 C.ar    1  UNL1        0.1396
     33 N         139.1159  141.3137  154.6279 N.ar    1  UNL1       -0.1335
     34 N         139.6062  142.3154  153.6248 N.ar    1  UNL1       -0.1277
     35 C         140.6934  143.1231  154.2696 C.ar    1  UNL1        0.1807
     36 N         140.8750  142.6205  155.6711 N.ar    1  UNL1       -0.3234
     37 H         141.5207  142.9642  156.3300 H       1  UNL1        0.1686
     38 C         141.4637  144.2376  153.6258 C.ar    1  UNL1        0.1169
     39 C         140.7650  145.5080  153.2415 C.ar    1  UNL1        0.0223
     40 C         141.5353  146.6225  152.5978 C.ar    1  UNL1        0.0032
     41 C         143.0043  146.4666  152.3383 C.ar    1  UNL1        0.0207
     42 C         143.7032  145.1962  152.7225 C.ar    1  UNL1        0.0989
     43 N         142.9329  144.0817  153.3663 N.ar    1  UNL1       -0.2407
@<TRIPOS>BOND
     1     7     8    2
     2     8     9   ar
     3     9    10   ar
     4    10    11   ar
     5    11    12   ar
     6    12    13   ar
     7    13    14   ar
     8    14     1    1
     9     1     2   ar
    10     2     3   ar
    11     3     4   ar
    12     4    25    1
    13    25    26    1
    14    26    27    1
    15    27    28    1
    16    28    29    1
    17    29    32    1
    18    32    33   ar
    19    33    34   ar
    20    34    35   ar
    21    35    38    1
    22    38    39   ar
    23    39    40   ar
    24    40    41   ar
    25    41    42   ar
    26    42    43   ar
    27    35    36   ar
    28    29    30    1
    29    30    31    1
    30     4     5   ar
    31     5     6   ar
    32    14    15   ar
    33    15    19    1
    34    19    20   ar
    35    20    21   ar
    36    21    22   ar
    37    22    23   ar
    38    23    24   ar
    39    15    16   ar
    40    16    17   ar
    41    17     8   ar
    42    17    12    1
    43     6     1   ar
    44    24    19   ar
    45    31    26    1
    46    36    32   ar
    47    43    38   ar
    48    13    18    1
    49    36    37    1
@<TRIPOS>MOLECULE
*****
 43 49 0 0 0
SMALL
GASTEIGER

@<TRIPOS>ATOM
      1 C         141.7652  140.8434  164.8474 C.ar    1  UNL1        0.0156
      2 C         142.5384  141.7373  163.9239 C.ar    1  UNL1        0.0011
      3 C         142.8086  141.3046  162.5133 C.ar    1  UNL1       -0.0029
      4 C         142.3055  139.9780  162.0263 C.ar    1  UNL1       -0.0061
      5 C         141.5323  139.0841  162.9499 C.ar    1  UNL1       -0.0029
      6 C         141.2621  139.5168  164.3605 C.ar    1  UNL1        0.0011
      7 O         139.6221  143.5953  170.7707 O.2     1  UNL1       -0.2651
      8 C         140.6843  142.5741  170.4899 C.ar    1  UNL1        0.2806
      9 N         141.4762  141.9855  171.6196 N.ar    1  UNL1       -0.2062
     10 C         142.5384  140.9643  171.3388 C.ar    1  UNL1        0.1037
     11 C         142.8086  140.5316  169.9282 C.ar    1  UNL1        0.0378
     12 C         142.0167  141.1202  168.7985 C.ar    1  UNL1        0.0628
     13 N         142.2869  140.6875  167.3878 N.ar    1  UNL1       -0.3530
     14 C         141.4950  141.2761  166.2581 C.ar    1  UNL1        0.0565
     15 C         140.4328  142.2973  166.5389 C.ar    1  UNL1        0.0158
     16 C         140.1626  142.7300  167.9495 C.ar    1  UNL1        0.0077
     17 C         140.9545  142.1414  169.0793 C.ar    1  UNL1        0.0735
     18 H         142.9841  140.0172  167.2035 H       1  UNL1        0.1659
     19 C         139.6408  142.8859  165.4091 C.ar    1  UNL1        0.0014
     20 C         138.5059  142.1125  164.8060 C.ar    1  UNL1        0.0000
     21 C         137.7139  142.7010  163.6762 C.ar    1  UNL1        0.0000
     22 C         138.0569  144.0629  163.1495 C.ar    1  UNL1        0.0000
     23 C         139.1919  144.8363  163.7526 C.ar    1  UNL1        0.0000
     24 C         139.9839  144.2478  164.8823 C.ar    1  UNL1        0.0000
     25 C         142.5757  139.5454  160.6157 C.3     1  UNL1        0.0991
     26 N         141.5119  139.6941  159.5687 N.3     1  UNL1       -0.2689
     27 C         140.9568  138.4794  158.8857 C.3     1  UNL1        0.0728
     28 C         139.8930  138.6282  157.8388 C.3     1  UNL1        0.0249
     29 C         139.3842  139.9916  157.4749 C.3     1  UNL1        0.0613
     30 C         139.9393  141.2062  158.1579 C.3     1  UNL1        0.0249
     31 C         141.0032  141.0574  159.2049 C.3     1  UNL1        0.0728
     32 C         138.3203  140.1403  156.4279 C.ar    1  UNL1        0.1396
     33 N         138.5026  139.9455  154.9519 N.ar    1  UNL1       -0.1335
     34 N         137.1824  140.1947  154.2849 N.ar    1  UNL1       -0.1277
     35 C         136.1841  140.5435  155.3488 C.ar    1  UNL1        0.1807
     36 N         136.8874  140.5099  156.6733 N.ar    1  UNL1       -0.3234
     37 H         136.4801  140.6974  157.5497 H       1  UNL1        0.1686
     38 C         134.7367  140.8689  155.1271 C.ar    1  UNL1        0.1169
     39 C         134.2927  141.4631  153.8235 C.ar    1  UNL1        0.0223
     40 C         132.8453  141.7885  153.6018 C.ar    1  UNL1        0.0032
     41 C         131.8419  141.5195  154.6838 C.ar    1  UNL1        0.0207
     42 C         132.2859  140.9252  155.9875 C.ar    1  UNL1        0.0989
     43 N         133.7333  140.5999  156.2092 N.ar    1  UNL1       -0.2407
@<TRIPOS>BOND
     1     7     8    2
     2     8     9   ar
     3     9    10   ar
     4    10    11   ar
     5    11    12   ar
     6    12    13   ar
     7    13    14   ar
     8    14     1    1
     9     1     2   ar
    10     2     3   ar
    11     3     4   ar
    12     4    25    1
    13    25    26    1
    14    26    27    1
    15    27    28    1
    16    28    29    1
    17    29    32    1
    18    32    33   ar
    19    33    34   ar
    20    34    35   ar
    21    35    38    1
    22    38    39   ar
    23    39    40   ar
    24    40    41   ar
    25    41    42   ar
    26    42    43   ar
    27    35    36   ar
    28    29    30    1
    29    30    31    1
    30     4     5   ar
    31     5     6   ar
    32    14    15   ar
    33    15    19    1
    34    19    20   ar
    35    20    21   ar
    36    21    22   ar
    37    22    23   ar
    38    23    24   ar
    39    15    16   ar
    40    16    17   ar
    41    17     8   ar
    42    17    12    1
    43     6     1   ar
    44    24    19   ar
    45    31    26    1
    46    36    32   ar
    47    43    38   ar
    48    13    18    1
    49    36    37    1
