@<TRIPOS>MOLECULE
*****
 28 29 0 0 0
SMALL
GASTEIGER

@<TRIPOS>ATOM
      1 N         138.0607  138.4564  162.3498 N.am    1  UNL1       -0.3041
      2 C         139.2261  137.7219  162.9431 C.2     1  UNL1        0.2269
      3 O         140.4436  137.4493  162.1103 O.2     1  UNL1       -0.2747
      4 H         137.2616  138.6353  162.8964 H       1  UNL1        0.1494
      5 C         138.1126  138.9185  160.9237 C.3     1  UNL1        0.0894
      6 N         139.5524  143.0703  159.9546 N.3     1  UNL1       -0.2727
      7 C         140.1061  141.8916  159.2102 C.3     1  UNL1        0.0721
      8 C         139.6261  140.5077  159.5333 C.3     1  UNL1        0.0191
      9 C         138.5925  140.3024  160.6007 C.3     1  UNL1        0.0224
     10 C         138.0388  141.4811  161.3450 C.3     1  UNL1        0.0191
     11 C         138.5187  142.8650  161.0220 C.3     1  UNL1        0.0721
     12 C         140.0323  144.4543  159.6316 C.3     1  UNL1        0.0721
     13 C         141.1638  145.0566  160.4105 C.3     1  UNL1        0.0173
     14 C         142.2262  144.0700  161.9591 C.3     1  UNL1        0.0000
     15 C         141.1153  145.0767  161.9096 C.3     1  UNL1        0.0013
     16 C         140.0044  146.0835  161.8601 C.3     1  UNL1        0.0000
     17 C         141.0668  145.0969  163.4087 C.3     1  UNL1        0.0000
     18 C         139.1742  137.2598  164.3693 C.3     1  UNL1        0.1113
     19 C         139.3425  138.2487  165.4846 C.ar    1  UNL1       -0.0131
     20 C         140.6214  139.0214  165.6152 C.ar    1  UNL1       -0.0041
     21 C         140.7897  140.0102  166.7305 C.ar    1  UNL1       -0.0046
     22 C         139.6790  140.2263  167.7152 C.ar    1  UNL1       -0.0228
     23 C         138.4000  139.4536  167.5846 C.ar    1  UNL1       -0.0046
     24 C         138.2317  138.4648  166.4693 C.ar    1  UNL1       -0.0041
     25 C         139.8473  141.2152  168.8304 C.3     1  UNL1        0.0189
     26 C         140.6558  142.0975  167.9262 C.3     1  UNL1        0.0044
     27 C         139.0388  140.3328  169.7347 C.3     1  UNL1        0.0044
     28 C         140.0156  142.2040  169.9457 C.3     1  UNL1        0.0044
@<TRIPOS>BOND
     1    14    15    1
     2    15    16    1
     3    15    17    1
     4    15    13    1
     5    13    12    1
     6    12     6    1
     7     6     7    1
     8     7     8    1
     9     8     9    1
    10     9     5    1
    11     5     1    1
    12     1     2   am
    13     2     3    2
    14     2    18    1
    15    18    19    1
    16    19    20   ar
    17    20    21   ar
    18    21    22   ar
    19    22    25    1
    20    25    26    1
    21    25    27    1
    22    25    28    1
    23    22    23   ar
    24    23    24   ar
    25     9    10    1
    26    10    11    1
    27    11     6    1
    28    24    19   ar
    29     1     4    1
@<TRIPOS>MOLECULE
*****
 28 29 0 0 0
SMALL
GASTEIGER

@<TRIPOS>ATOM
      1 N         137.7367  140.9229  164.4480 N.am    1  UNL1       -0.3041
      2 C         138.3667  139.5634  164.3781 C.2     1  UNL1        0.2269
      3 O         138.3933  138.8151  163.0784 O.2     1  UNL1       -0.2747
      4 H         137.7193  141.4141  165.3011 H       1  UNL1        0.1494
      5 C         137.1333  141.5340  163.2183 C.3     1  UNL1        0.0894
      6 N         139.5394  144.3977  160.7162 N.3     1  UNL1       -0.2727
      7 C         139.1770  144.7562  162.1269 C.3     1  UNL1        0.0721
      8 C         138.3749  143.8017  162.9609 C.3     1  UNL1        0.0191
      9 C         137.9353  142.4886  162.3842 C.3     1  UNL1        0.0224
     10 C         138.2978  142.1300  160.9736 C.3     1  UNL1        0.0191
     11 C         139.0999  143.0846  160.1396 C.3     1  UNL1        0.0721
     12 C         140.3415  145.3522  159.8822 C.3     1  UNL1        0.0721
     13 C         141.6901  144.9465  159.3659 C.3     1  UNL1        0.0173
     14 C         142.9275  143.7442  158.1317 C.3     1  UNL1        0.0000
     15 C         141.9245  144.8327  157.8887 C.3     1  UNL1        0.0013
     16 C         140.9214  145.9212  157.6457 C.3     1  UNL1        0.0000
     17 C         142.1589  144.7189  156.4115 C.3     1  UNL1        0.0000
     18 C         138.9702  138.9523  165.6079 C.3     1  UNL1        0.1113
     19 C         139.7111  139.8137  166.5872 C.ar    1  UNL1       -0.0131
     20 C         140.9029  140.6057  166.1375 C.ar    1  UNL1       -0.0041
     21 C         141.6438  141.4671  167.1168 C.ar    1  UNL1       -0.0046
     22 C         141.1929  141.5366  168.5457 C.ar    1  UNL1       -0.0228
     23 C         140.0010  140.7445  168.9954 C.ar    1  UNL1       -0.0046
     24 C         139.2601  139.8831  168.0162 C.ar    1  UNL1       -0.0041
     25 C         141.9338  142.3980  169.5250 C.3     1  UNL1        0.0189
     26 C         140.7514  143.3169  169.6113 C.3     1  UNL1        0.0044
     27 C         143.1163  141.4791  169.4387 C.3     1  UNL1        0.0044
     28 C         142.6748  143.2594  170.5043 C.3     1  UNL1        0.0044
@<TRIPOS>BOND
     1    14    15    1
     2    15    16    1
     3    15    17    1
     4    15    13    1
     5    13    12    1
     6    12     6    1
     7     6     7    1
     8     7     8    1
     9     8     9    1
    10     9     5    1
    11     5     1    1
    12     1     2   am
    13     2     3    2
    14     2    18    1
    15    18    19    1
    16    19    20   ar
    17    20    21   ar
    18    21    22   ar
    19    22    25    1
    20    25    26    1
    21    25    27    1
    22    25    28    1
    23    22    23   ar
    24    23    24   ar
    25     9    10    1
    26    10    11    1
    27    11     6    1
    28    24    19   ar
    29     1     4    1
@<TRIPOS>MOLECULE
*****
 28 29 0 0 0
SMALL
GASTEIGER

@<TRIPOS>ATOM
      1 N         140.7823  138.0202  157.5553 N.am    1  UNL1       -0.3041
      2 C         140.3014  137.2076  156.3898 C.2     1  UNL1        0.2269
      3 O         138.8315  137.0831  156.1179 O.2     1  UNL1       -0.2747
      4 H         141.7470  138.1019  157.7338 H       1  UNL1        0.1494
      5 C         139.7934  138.7085  158.4487 C.3     1  UNL1        0.0894
      6 N         139.9167  138.0189  162.8939 N.3     1  UNL1       -0.2727
      7 C         141.1933  138.0812  162.1089 C.3     1  UNL1        0.0721
      8 C         141.1522  138.3111  160.6272 C.3     1  UNL1        0.0191
      9 C         139.8345  138.4786  159.9305 C.3     1  UNL1        0.0224
     10 C         138.5578  138.4163  160.7155 C.3     1  UNL1        0.0191
     11 C         138.5989  138.1865  162.1972 C.3     1  UNL1        0.0721
     12 C         139.9578  137.7891  164.3756 C.3     1  UNL1        0.0721
     13 C         138.7802  138.1639  165.2257 C.3     1  UNL1        0.0173
     14 C         140.2846  139.4919  165.9135 C.3     1  UNL1        0.0000
     15 C         138.9795  138.9933  166.4596 C.3     1  UNL1        0.0013
     16 C         137.6745  138.4946  167.0056 C.3     1  UNL1        0.0000
     17 C         139.1789  139.8226  167.6934 C.3     1  UNL1        0.0000
     18 C         141.2904  136.5193  155.4964 C.3     1  UNL1        0.1113
     19 C         141.9691  135.2632  155.9562 C.ar    1  UNL1       -0.0131
     20 C         143.0516  135.3317  156.9922 C.ar    1  UNL1       -0.0041
     21 C         143.7303  134.0756  157.4520 C.ar    1  UNL1       -0.0046
     22 C         143.3266  132.7509  156.8758 C.ar    1  UNL1       -0.0228
     23 C         142.2440  132.6823  155.8397 C.ar    1  UNL1       -0.0046
     24 C         141.5653  133.9384  155.3799 C.ar    1  UNL1       -0.0041
     25 C         144.0053  131.4947  157.3356 C.3     1  UNL1        0.0189
     26 C         142.9020  130.6775  156.7316 C.3     1  UNL1        0.0044
     27 C         145.1086  132.3120  157.9396 C.3     1  UNL1        0.0044
     28 C         144.6841  130.2386  157.7954 C.3     1  UNL1        0.0044
@<TRIPOS>BOND
     1    14    15    1
     2    15    16    1
     3    15    17    1
     4    15    13    1
     5    13    12    1
     6    12     6    1
     7     6     7    1
     8     7     8    1
     9     8     9    1
    10     9     5    1
    11     5     1    1
    12     1     2   am
    13     2     3    2
    14     2    18    1
    15    18    19    1
    16    19    20   ar
    17    20    21   ar
    18    21    22   ar
    19    22    25    1
    20    25    26    1
    21    25    27    1
    22    25    28    1
    23    22    23   ar
    24    23    24   ar
    25     9    10    1
    26    10    11    1
    27    11     6    1
    28    24    19   ar
    29     1     4    1
@<TRIPOS>MOLECULE
*****
 28 29 0 0 0
SMALL
GASTEIGER

@<TRIPOS>ATOM
      1 N         139.0769  138.8229  158.4291 N.am    1  UNL1       -0.3041
      2 C         139.2598  139.0469  159.9010 C.2     1  UNL1        0.2269
      3 O         140.5979  139.4635  160.4356 O.2     1  UNL1       -0.2747
      4 H         138.1986  138.5495  158.0782 H       1  UNL1        0.1494
      5 C         140.2321  139.0153  157.4919 C.3     1  UNL1        0.0894
      6 N         142.5701  135.4545  156.0414 N.3     1  UNL1       -0.2727
      7 C         143.0991  136.2902  157.1691 C.3     1  UNL1        0.0721
      8 C         142.3197  137.4772  157.6526 C.3     1  UNL1        0.0191
      9 C         141.0114  137.8284  157.0084 C.3     1  UNL1        0.0224
     10 C         140.4825  136.9926  155.8808 C.3     1  UNL1        0.0191
     11 C         141.2618  135.8057  155.3973 C.3     1  UNL1        0.0721
     12 C         143.3495  134.2675  155.5580 C.3     1  UNL1        0.0721
     13 C         143.6112  133.1152  156.4819 C.3     1  UNL1        0.0173
     14 C         143.2688  131.8913  154.7834 C.3     1  UNL1        0.0000
     15 C         144.2118  131.8482  155.9491 C.3     1  UNL1        0.0013
     16 C         145.1548  131.8050  157.1148 C.3     1  UNL1        0.0000
     17 C         144.8124  130.5811  155.4163 C.3     1  UNL1        0.0000
     18 C         138.1044  138.8544  160.8382 C.3     1  UNL1        0.1113
     19 C         138.2979  139.0368  162.3145 C.ar    1  UNL1       -0.0131
     20 C         137.9435  140.3427  162.9616 C.ar    1  UNL1       -0.0041
     21 C         138.1369  140.5251  164.4379 C.ar    1  UNL1       -0.0046
     22 C         138.6847  139.4015  165.2670 C.ar    1  UNL1       -0.0228
     23 C         139.0392  138.0955  164.6198 C.ar    1  UNL1       -0.0046
     24 C         138.8457  137.9131  163.1435 C.ar    1  UNL1       -0.0041
     25 C         138.8782  139.5839  166.7432 C.3     1  UNL1        0.0189
     26 C         137.7829  138.5940  167.0090 C.3     1  UNL1        0.0044
     27 C         139.9734  140.5737  166.4774 C.3     1  UNL1        0.0044
     28 C         139.0716  139.7662  168.2195 C.3     1  UNL1        0.0044
@<TRIPOS>BOND
     1    14    15    1
     2    15    16    1
     3    15    17    1
     4    15    13    1
     5    13    12    1
     6    12     6    1
     7     6     7    1
     8     7     8    1
     9     8     9    1
    10     9     5    1
    11     5     1    1
    12     1     2   am
    13     2     3    2
    14     2    18    1
    15    18    19    1
    16    19    20   ar
    17    20    21   ar
    18    21    22   ar
    19    22    25    1
    20    25    26    1
    21    25    27    1
    22    25    28    1
    23    22    23   ar
    24    23    24   ar
    25     9    10    1
    26    10    11    1
    27    11     6    1
    28    24    19   ar
    29     1     4    1
@<TRIPOS>MOLECULE
*****
 28 29 0 0 0
SMALL
GASTEIGER

@<TRIPOS>ATOM
      1 N         139.4436  137.9914  164.1930 N.am    1  UNL1       -0.3041
      2 C         138.6045  139.0756  164.8017 C.2     1  UNL1        0.2269
      3 O         137.9886  140.1274  163.9274 O.2     1  UNL1       -0.2747
      4 H         139.8479  137.3011  164.7668 H       1  UNL1        0.1494
      5 C         139.6667  137.9590  162.7100 C.3     1  UNL1        0.0894
      6 N         142.7275  140.6733  160.8354 N.3     1  UNL1       -0.2727
      7 C         141.2679  141.0020  160.7285 C.3     1  UNL1        0.0721
      8 C         140.2477  140.0972  161.3534 C.3     1  UNL1        0.0191
      9 C         140.6870  138.8638  162.0851 C.3     1  UNL1        0.0224
     10 C         142.1466  138.5351  162.1920 C.3     1  UNL1        0.0191
     11 C         143.1669  139.4398  161.5671 C.3     1  UNL1        0.0721
     12 C         143.7478  141.5780  160.2105 C.3     1  UNL1        0.0721
     13 C         144.8471  142.1605  161.0484 C.3     1  UNL1        0.0173
     14 C         145.4917  141.7958  163.0362 C.3     1  UNL1        0.0000
     15 C         144.5338  142.7526  162.3905 C.3     1  UNL1        0.0013
     16 C         143.5760  143.7094  161.7447 C.3     1  UNL1        0.0000
     17 C         144.2205  143.3448  163.7326 C.3     1  UNL1        0.0000
     18 C         138.3814  139.1080  166.2847 C.3     1  UNL1        0.1113
     19 C         139.2661  139.9473  167.1580 C.ar    1  UNL1       -0.0131
     20 C         140.3131  140.8263  166.5408 C.ar    1  UNL1       -0.0041
     21 C         141.1978  141.6657  167.4142 C.ar    1  UNL1       -0.0046
     22 C         141.0355  141.6260  168.9048 C.ar    1  UNL1       -0.0228
     23 C         139.9885  140.7470  169.5221 C.ar    1  UNL1       -0.0046
     24 C         139.1038  139.9076  168.6488 C.ar    1  UNL1       -0.0041
     25 C         141.9202  142.4654  169.7782 C.3     1  UNL1        0.0189
     26 C         142.9938  141.4212  169.6942 C.3     1  UNL1        0.0044
     27 C         140.8466  143.5096  169.8622 C.3     1  UNL1        0.0044
     28 C         142.8049  143.3048  170.6515 C.3     1  UNL1        0.0044
@<TRIPOS>BOND
     1    14    15    1
     2    15    16    1
     3    15    17    1
     4    15    13    1
     5    13    12    1
     6    12     6    1
     7     6     7    1
     8     7     8    1
     9     8     9    1
    10     9     5    1
    11     5     1    1
    12     1     2   am
    13     2     3    2
    14     2    18    1
    15    18    19    1
    16    19    20   ar
    17    20    21   ar
    18    21    22   ar
    19    22    25    1
    20    25    26    1
    21    25    27    1
    22    25    28    1
    23    22    23   ar
    24    23    24   ar
    25     9    10    1
    26    10    11    1
    27    11     6    1
    28    24    19   ar
    29     1     4    1
@<TRIPOS>MOLECULE
*****
 28 29 0 0 0
SMALL
GASTEIGER

@<TRIPOS>ATOM
      1 N         141.8210  136.4365  156.7306 N.am    1  UNL1       -0.3041
      2 C         142.8474  137.5191  156.8864 C.2     1  UNL1        0.2269
      3 O         144.1319  137.4515  156.1148 O.2     1  UNL1       -0.2747
      4 H         140.9779  136.4809  157.2370 H       1  UNL1        0.1494
      5 C         142.0791  135.2862  155.8031 C.3     1  UNL1        0.0894
      6 N         143.8686  131.4744  157.3899 N.3     1  UNL1       -0.2727
      7 C         144.4522  132.7983  157.7852 C.3     1  UNL1        0.0721
      8 C         143.8557  134.0689  157.2563 C.3     1  UNL1        0.0191
      9 C         142.6756  134.0156  156.3320 C.3     1  UNL1        0.0224
     10 C         142.0919  132.6916  155.9367 C.3     1  UNL1        0.0191
     11 C         142.6884  131.4210  156.4656 C.3     1  UNL1        0.0721
     12 C         144.4651  130.2038  157.9188 C.3     1  UNL1        0.0721
     13 C         143.8492  128.8824  157.5660 C.3     1  UNL1        0.0173
     14 C         143.8995  128.7089  159.6796 C.3     1  UNL1        0.0000
     15 C         143.0480  128.1316  158.5880 C.3     1  UNL1        0.0013
     16 C         142.1965  127.5542  157.4964 C.3     1  UNL1        0.0000
     17 C         142.2469  127.3808  159.6100 C.3     1  UNL1        0.0000
     18 C         142.5892  138.6695  157.8139 C.3     1  UNL1        0.1113
     19 C         141.8910  138.4369  159.1209 C.ar    1  UNL1       -0.0131
     20 C         140.4130  138.6672  159.2331 C.ar    1  UNL1       -0.0041
     21 C         139.7148  138.4346  160.5401 C.ar    1  UNL1       -0.0046
     22 C         140.4945  137.9718  161.7350 C.ar    1  UNL1       -0.0228
     23 C         141.9725  137.7415  161.6229 C.ar    1  UNL1       -0.0046
     24 C         142.6707  137.9740  160.3159 C.ar    1  UNL1       -0.0041
     25 C         139.7962  137.7392  163.0420 C.3     1  UNL1        0.0189
     26 C         141.0825  137.2553  163.6431 C.3     1  UNL1        0.0044
     27 C         138.5099  138.2232  162.4410 C.3     1  UNL1        0.0044
     28 C         139.0979  137.5067  164.3491 C.3     1  UNL1        0.0044
@<TRIPOS>BOND
     1    14    15    1
     2    15    16    1
     3    15    17    1
     4    15    13    1
     5    13    12    1
     6    12     6    1
     7     6     7    1
     8     7     8    1
     9     8     9    1
    10     9     5    1
    11     5     1    1
    12     1     2   am
    13     2     3    2
    14     2    18    1
    15    18    19    1
    16    19    20   ar
    17    20    21   ar
    18    21    22   ar
    19    22    25    1
    20    25    26    1
    21    25    27    1
    22    25    28    1
    23    22    23   ar
    24    23    24   ar
    25     9    10    1
    26    10    11    1
    27    11     6    1
    28    24    19   ar
    29     1     4    1
@<TRIPOS>MOLECULE
*****
 28 29 0 0 0
SMALL
GASTEIGER

@<TRIPOS>ATOM
      1 N         136.9462  140.3355  157.4658 N.am    1  UNL1       -0.3041
      2 C         136.3727  141.2074  156.3884 C.2     1  UNL1        0.2269
      3 O         136.7768  142.6489  156.2956 O.2     1  UNL1       -0.2747
      4 H         136.6809  139.3894  157.5266 H       1  UNL1        0.1494
      5 C         137.9238  140.9051  158.4505 C.3     1  UNL1        0.0894
      6 N         139.2465  138.4521  161.9837 N.3     1  UNL1       -0.2727
      7 C         140.2552  138.9260  160.9799 C.3     1  UNL1        0.0721
      8 C         139.8144  139.7437  159.8021 C.3     1  UNL1        0.0191
      9 C         138.3647  140.0874  159.6282 C.3     1  UNL1        0.0224
     10 C         137.3559  139.6135  160.6320 C.3     1  UNL1        0.0191
     11 C         137.7968  138.7958  161.8098 C.3     1  UNL1        0.0721
     12 C         139.6873  137.6344  163.1614 C.3     1  UNL1        0.0721
     13 C         139.0207  137.8166  164.4927 C.3     1  UNL1        0.0173
     14 C         140.9859  138.3387  165.0971 C.3     1  UNL1        0.0000
     15 C         139.6045  138.7614  165.5008 C.3     1  UNL1        0.0013
     16 C         138.2231  139.1842  165.9046 C.3     1  UNL1        0.0000
     17 C         140.1883  139.7063  166.5090 C.3     1  UNL1        0.0000
     18 C         135.3950  140.6378  155.4036 C.3     1  UNL1        0.1113
     19 C         133.9864  140.3456  155.8286 C.ar    1  UNL1       -0.0131
     20 C         132.8940  141.3296  155.5316 C.ar    1  UNL1       -0.0041
     21 C         131.4855  141.0375  155.9566 C.ar    1  UNL1       -0.0046
     22 C         131.1694  139.7613  156.6787 C.ar    1  UNL1       -0.0228
     23 C         132.2618  138.7772  156.9758 C.ar    1  UNL1       -0.0046
     24 C         133.6704  139.0694  156.5508 C.ar    1  UNL1       -0.0041
     25 C         129.7608  139.4692  157.1038 C.3     1  UNL1        0.0189
     26 C         129.2514  140.4500  156.0896 C.3     1  UNL1        0.0044
     27 C         130.2703  138.4883  158.1179 C.3     1  UNL1        0.0044
     28 C         128.3523  139.1770  157.5288 C.3     1  UNL1        0.0044
@<TRIPOS>BOND
     1    14    15    1
     2    15    16    1
     3    15    17    1
     4    15    13    1
     5    13    12    1
     6    12     6    1
     7     6     7    1
     8     7     8    1
     9     8     9    1
    10     9     5    1
    11     5     1    1
    12     1     2   am
    13     2     3    2
    14     2    18    1
    15    18    19    1
    16    19    20   ar
    17    20    21   ar
    18    21    22   ar
    19    22    25    1
    20    25    26    1
    21    25    27    1
    22    25    28    1
    23    22    23   ar
    24    23    24   ar
    25     9    10    1
    26    10    11    1
    27    11     6    1
    28    24    19   ar
    29     1     4    1
@<TRIPOS>MOLECULE
*****
 28 29 0 0 0
SMALL
GASTEIGER

@<TRIPOS>ATOM
      1 N         137.6963  139.1595  162.1907 N.am    1  UNL1       -0.3041
      2 C         138.7755  138.1526  162.4581 C.2     1  UNL1        0.2269
      3 O         139.7061  137.7401  161.3564 O.2     1  UNL1       -0.2747
      4 H         137.0855  139.4302  162.9139 H       1  UNL1        0.1494
      5 C         137.5477  139.7539  160.8216 C.3     1  UNL1        0.0894
      6 N         139.8051  143.4918  159.7344 N.3     1  UNL1       -0.2727
      7 C         139.2541  143.3245  161.1194 C.3     1  UNL1        0.0721
      8 C         138.5017  142.0785  161.4819 C.3     1  UNL1        0.0191
      9 C         138.3002  140.9999  160.4592 C.3     1  UNL1        0.0224
     10 C         138.8511  141.1672  159.0742 C.3     1  UNL1        0.0191
     11 C         139.6036  142.4132  158.7118 C.3     1  UNL1        0.0721
     12 C         140.5575  144.7378  159.3720 C.3     1  UNL1        0.0721
     13 C         140.1083  145.5743  158.2108 C.3     1  UNL1        0.0173
     14 C         142.1251  145.8620  157.6196 C.3     1  UNL1        0.0000
     15 C         140.8513  145.5115  156.9093 C.3     1  UNL1        0.0013
     16 C         139.5775  145.1610  156.1989 C.3     1  UNL1        0.0000
     17 C         141.5944  145.4487  155.6077 C.3     1  UNL1        0.0000
     18 C         138.9241  137.5582  163.8273 C.3     1  UNL1        0.1113
     19 C         139.1629  138.4494  165.0100 C.ar    1  UNL1       -0.0131
     20 C         140.3554  139.3590  165.0350 C.ar    1  UNL1       -0.0041
     21 C         140.5941  140.2502  166.2177 C.ar    1  UNL1       -0.0046
     22 C         139.6405  140.2319  167.3753 C.ar    1  UNL1       -0.0228
     23 C         138.4479  139.3223  167.3503 C.ar    1  UNL1       -0.0046
     24 C         138.2091  138.4310  166.1676 C.ar    1  UNL1       -0.0041
     25 C         139.8792  141.1231  168.5580 C.3     1  UNL1        0.0189
     26 C         140.5739  142.1137  167.6713 C.3     1  UNL1        0.0044
     27 C         139.1846  140.1325  169.4447 C.3     1  UNL1        0.0044
     28 C         140.1180  142.0143  169.7406 C.3     1  UNL1        0.0044
@<TRIPOS>BOND
     1    14    15    1
     2    15    16    1
     3    15    17    1
     4    15    13    1
     5    13    12    1
     6    12     6    1
     7     6     7    1
     8     7     8    1
     9     8     9    1
    10     9     5    1
    11     5     1    1
    12     1     2   am
    13     2     3    2
    14     2    18    1
    15    18    19    1
    16    19    20   ar
    17    20    21   ar
    18    21    22   ar
    19    22    25    1
    20    25    26    1
    21    25    27    1
    22    25    28    1
    23    22    23   ar
    24    23    24   ar
    25     9    10    1
    26    10    11    1
    27    11     6    1
    28    24    19   ar
    29     1     4    1
@<TRIPOS>MOLECULE
*****
 28 29 0 0 0
SMALL
GASTEIGER

@<TRIPOS>ATOM
      1 N         139.8697  145.3780  159.3784 N.am    1  UNL1       -0.3041
      2 C         140.6584  145.6253  158.1267 C.2     1  UNL1        0.2269
      3 O         142.1251  145.9275  158.2118 O.2     1  UNL1       -0.2747
      4 H         138.9070  145.1797  159.3226 H       1  UNL1        0.1494
      5 C         140.5477  145.4329  160.7153 C.3     1  UNL1        0.0894
      6 N         139.2926  142.6158  163.9922 N.3     1  UNL1       -0.2727
      7 C         139.8708  142.0745  162.7184 C.3     1  UNL1        0.0721
      8 C         140.2891  143.0136  161.6261 C.3     1  UNL1        0.0191
      9 C         140.1294  144.4939  161.8076 C.3     1  UNL1        0.0224
     10 C         139.5512  145.0352  163.0814 C.3     1  UNL1        0.0191
     11 C         139.1328  144.0962  164.1737 C.3     1  UNL1        0.0721
     12 C         138.8742  141.6768  165.0845 C.3     1  UNL1        0.0721
     13 C         138.0197  140.4865  164.7639 C.3     1  UNL1        0.0173
     14 C         138.5130  138.8467  163.5118 C.3     1  UNL1        0.0000
     15 C         138.5484  139.1010  164.9896 C.3     1  UNL1        0.0013
     16 C         138.5838  139.3553  166.4675 C.3     1  UNL1        0.0000
     17 C         139.0771  137.7155  165.2154 C.3     1  UNL1        0.0000
     18 C         139.9802  145.5704  156.7898 C.3     1  UNL1        0.1113
     19 C         139.8337  146.8189  155.9714 C.ar    1  UNL1       -0.0131
     20 C         138.9898  147.9517  156.4759 C.ar    1  UNL1       -0.0041
     21 C         138.8433  149.2001  155.6574 C.ar    1  UNL1       -0.0046
     22 C         139.5406  149.3158  154.3344 C.ar    1  UNL1       -0.0228
     23 C         140.3846  148.1829  153.8299 C.ar    1  UNL1       -0.0046
     24 C         140.5311  146.9345  154.6483 C.ar    1  UNL1       -0.0041
     25 C         139.3941  150.5642  153.5160 C.3     1  UNL1        0.0189
     26 C         139.8215  149.8113  152.2910 C.3     1  UNL1        0.0044
     27 C         138.9668  151.3171  154.7409 C.3     1  UNL1        0.0044
     28 C         139.2476  151.8127  152.6975 C.3     1  UNL1        0.0044
@<TRIPOS>BOND
     1    14    15    1
     2    15    16    1
     3    15    17    1
     4    15    13    1
     5    13    12    1
     6    12     6    1
     7     6     7    1
     8     7     8    1
     9     8     9    1
    10     9     5    1
    11     5     1    1
    12     1     2   am
    13     2     3    2
    14     2    18    1
    15    18    19    1
    16    19    20   ar
    17    20    21   ar
    18    21    22   ar
    19    22    25    1
    20    25    26    1
    21    25    27    1
    22    25    28    1
    23    22    23   ar
    24    23    24   ar
    25     9    10    1
    26    10    11    1
    27    11     6    1
    28    24    19   ar
    29     1     4    1
