@<TRIPOS>MOLECULE
*****
 38 42 0 0 0
SMALL
GASTEIGER

@<TRIPOS>ATOM
      1 O         143.3598  138.9007  160.5599 O.2     1  UNL1       -0.2733
      2 C         142.2505  138.4959  159.6348 C.2     1  UNL1        0.2425
      3 N         140.8537  138.3438  160.1601 N.am    1  UNL1       -0.3018
      4 H         140.1257  138.0781  159.5529 H       1  UNL1        0.1495
      5 C         140.5663  138.5964  161.6105 C.3     1  UNL1        0.1035
      6 C         140.7958  137.8393  162.8848 C.3     1  UNL1        0.0933
      7 N         140.1597  138.9537  163.6616 N.3     1  UNL1       -0.2711
      8 C         139.9302  139.7109  162.3872 C.3     1  UNL1        0.0933
      9 C         139.8722  139.2064  165.1119 C.3     1  UNL1        0.0578
     10 C         138.5522  138.7997  165.6967 C.3     1  UNL1        0.0187
     11 C         138.2646  139.0524  167.1471 C.3     1  UNL1        0.0331
     12 C         139.2972  139.7117  168.0126 C.3     1  UNL1        0.1140
     13 O         138.2039  139.5096  169.0195 O.3     1  UNL1       -0.3821
     14 C         140.6173  140.1183  167.4278 C.3     1  UNL1        0.0331
     15 C         140.9048  139.8656  165.9774 C.3     1  UNL1        0.0187
     16 H         137.4465  139.0796  168.5924 H       1  UNL1        0.2107
     17 C         139.9501  140.3008  169.2278 C.ar    1  UNL1        0.0518
     18 C         139.4009  141.4121  170.0725 C.ar    1  UNL1        0.1039
     19 N         140.3782  141.6801  171.1784 N.ar    1  UNL1       -0.2350
     20 C         141.5314  140.7345  171.0172 C.ar    1  UNL1        0.1343
     21 S         141.2668  139.8820  169.8117 S.2     1  UNL1       -0.0665
     22 C         142.5380  138.2433  158.1844 C.3     1  UNL1        0.1747
     23 N         143.0360  136.8995  157.7415 N.pl3   1  UNL1       -0.3106
     24 H         143.6335  136.3789  158.3256 H       1  UNL1        0.1486
     25 C         142.6235  136.3488  156.4086 C.ar    1  UNL1        0.1302
     26 N         141.8410  137.2016  155.4544 N.ar    1  UNL1       -0.2293
     27 C         141.4285  136.6509  154.1215 C.ar    1  UNL1        0.1018
     28 C         141.7986  135.2475  153.7428 C.ar    1  UNL1        0.0399
     29 C         142.5811  134.3947  154.6970 C.ar    1  UNL1        0.0855
     30 N         142.9511  132.9913  154.3183 N.ar    1  UNL1       -0.2438
     31 C         143.7337  132.1385  155.2724 C.ar    1  UNL1        0.1027
     32 C         144.1462  132.6892  156.6054 C.ar    1  UNL1        0.0906
     33 C         143.7761  134.0926  156.9841 C.ar    1  UNL1        0.0097
     34 C         142.9935  134.9454  156.0298 C.ar    1  UNL1        0.0491
     35 C         144.9287  131.8364  157.5595 C.3     1  UNL1        0.4200
     36 F         145.7112  130.9836  158.5137 F       1  UNL1       -0.1658
     37 F         145.2465  133.0493  158.3828 F       1  UNL1       -0.1658
     38 F         144.6108  130.6236  156.7362 F       1  UNL1       -0.1658
@<TRIPOS>BOND
     1     1     2    2
     2     2    22    1
     3    22    23    1
     4    23    25    1
     5    25    26   ar
     6    26    27   ar
     7    27    28   ar
     8    28    29   ar
     9    29    30   ar
    10    30    31   ar
    11    31    32   ar
    12    32    35    1
    13    35    36    1
    14    35    37    1
    15    35    38    1
    16    32    33   ar
    17    33    34   ar
    18     2     3   am
    19     3     5    1
    20     5     6    1
    21     6     7    1
    22     9     7    1
    23     9    10    1
    24    10    11    1
    25    11    12    1
    26    12    13    1
    27    12    17    1
    28    17    18   ar
    29    18    19   ar
    30    19    20   ar
    31    20    21   ar
    32    12    14    1
    33    14    15    1
    34     7     8    1
    35    34    25   ar
    36     8     5    1
    37    34    29   ar
    38    15     9    1
    39    21    17   ar
    40    23    24    1
    41     3     4    1
    42    13    16    1
@<TRIPOS>MOLECULE
*****
 38 42 0 0 0
SMALL
GASTEIGER

@<TRIPOS>ATOM
      1 O         141.4668  139.7095  159.5710 O.2     1  UNL1       -0.2733
      2 C         142.6796  138.9557  159.1116 C.2     1  UNL1        0.2425
      3 N         143.7242  138.5390  160.1041 N.am    1  UNL1       -0.3018
      4 H         144.5202  138.0443  159.8026 H       1  UNL1        0.1495
      5 C         143.5560  138.8761  161.5561 C.3     1  UNL1        0.1035
      6 C         142.6377  138.4208  162.6511 C.3     1  UNL1        0.0933
      7 N         143.3182  139.3528  163.6094 N.3     1  UNL1       -0.2711
      8 C         144.2365  139.8082  162.5143 C.3     1  UNL1        0.0933
      9 C         143.1500  139.6899  165.0613 C.3     1  UNL1        0.0578
     10 C         143.2844  138.6169  166.1008 C.3     1  UNL1        0.0187
     11 C         143.1162  138.9540  167.5528 C.3     1  UNL1        0.0331
     12 C         142.8137  140.3641  167.9652 C.3     1  UNL1        0.1140
     13 O         142.8470  139.7007  169.3102 O.3     1  UNL1       -0.3821
     14 C         142.6793  141.4371  166.9256 C.3     1  UNL1        0.0331
     15 C         142.8475  141.1000  165.4738 C.3     1  UNL1        0.0187
     16 H         143.0379  138.7561  169.2001 H       1  UNL1        0.2107
     17 C         142.5227  141.5438  168.8447 C.ar    1  UNL1        0.0518
     18 C         143.4992  142.2260  169.7564 C.ar    1  UNL1        0.1039
     19 N         142.7841  143.3523  170.4421 N.ar    1  UNL1       -0.2350
     20 C         141.3657  143.3661  169.9542 C.ar    1  UNL1        0.1343
     21 S         141.2042  142.2484  168.9670 S.2     1  UNL1       -0.0665
     22 C         142.8478  138.6187  157.6597 C.3     1  UNL1        0.1747
     23 N         143.3140  137.2512  157.2562 N.pl3   1  UNL1       -0.3106
     24 H         143.9414  136.7557  157.8307 H       1  UNL1        0.1486
     25 C         142.8242  136.6388  155.9775 C.ar    1  UNL1        0.1302
     26 N         142.0777  137.4768  154.9823 N.ar    1  UNL1       -0.2293
     27 C         141.5879  136.8643  153.7037 C.ar    1  UNL1        0.1018
     28 C         141.8446  135.4139  153.4202 C.ar    1  UNL1        0.0399
     29 C         142.5911  134.5759  154.4154 C.ar    1  UNL1        0.0855
     30 N         142.8479  133.1255  154.1320 N.ar    1  UNL1       -0.2438
     31 C         143.5944  132.2875  155.1272 C.ar    1  UNL1        0.1027
     32 C         144.0842  132.8999  156.4060 C.ar    1  UNL1        0.0906
     33 C         143.8274  134.3504  156.6894 C.ar    1  UNL1        0.0097
     34 C         143.0809  135.1884  155.6941 C.ar    1  UNL1        0.0491
     35 C         144.8307  132.0620  157.4012 C.3     1  UNL1        0.4200
     36 F         145.5772  131.2240  158.3965 F       1  UNL1       -0.1658
     37 F         144.8631  130.9269  156.4211 F       1  UNL1       -0.1658
     38 F         144.7983  133.1971  158.3812 F       1  UNL1       -0.1658
@<TRIPOS>BOND
     1     1     2    2
     2     2    22    1
     3    22    23    1
     4    23    25    1
     5    25    26   ar
     6    26    27   ar
     7    27    28   ar
     8    28    29   ar
     9    29    30   ar
    10    30    31   ar
    11    31    32   ar
    12    32    35    1
    13    35    36    1
    14    35    37    1
    15    35    38    1
    16    32    33   ar
    17    33    34   ar
    18     2     3   am
    19     3     5    1
    20     5     6    1
    21     6     7    1
    22     9     7    1
    23     9    10    1
    24    10    11    1
    25    11    12    1
    26    12    13    1
    27    12    17    1
    28    17    18   ar
    29    18    19   ar
    30    19    20   ar
    31    20    21   ar
    32    12    14    1
    33    14    15    1
    34     7     8    1
    35    34    25   ar
    36     8     5    1
    37    34    29   ar
    38    15     9    1
    39    21    17   ar
    40    23    24    1
    41     3     4    1
    42    13    16    1
@<TRIPOS>MOLECULE
*****
 38 42 0 0 0
SMALL
GASTEIGER

@<TRIPOS>ATOM
      1 O         139.8517  140.5945  159.6280 O.2     1  UNL1       -0.2733
      2 C         139.5940  139.1915  159.1638 C.2     1  UNL1        0.2425
      3 N         139.3373  138.1053  160.1659 N.am    1  UNL1       -0.3018
      4 H         139.1682  137.1845  159.8613 H       1  UNL1        0.1495
      5 C         139.3382  138.4220  161.6321 C.3     1  UNL1        0.1035
      6 C         139.9500  137.7987  162.8515 C.3     1  UNL1        0.0933
      7 N         139.3395  138.8700  163.7056 N.3     1  UNL1       -0.2711
      8 C         138.7276  139.4934  162.4862 C.3     1  UNL1        0.0933
      9 C         139.3403  139.1868  165.1718 C.3     1  UNL1        0.0578
     10 C         138.1740  138.7871  166.0261 C.3     1  UNL1        0.0187
     11 C         138.1748  139.1039  167.4923 C.3     1  UNL1        0.0331
     12 C         139.3421  139.8203  168.1041 C.3     1  UNL1        0.1140
     13 O         138.4767  139.6488  169.3173 O.3     1  UNL1       -0.3821
     14 C         140.5084  140.2200  167.2497 C.3     1  UNL1        0.0331
     15 C         140.5075  139.9032  165.7836 C.3     1  UNL1        0.0187
     16 H         137.6606  139.1867  169.0695 H       1  UNL1        0.2107
     17 C         140.2087  140.4772  169.1372 C.ar    1  UNL1        0.0518
     18 C         140.0664  141.8820  169.6436 C.ar    1  UNL1        0.1039
     19 N         141.1396  142.1175  170.6647 N.ar    1  UNL1       -0.2350
     20 C         141.9452  140.8583  170.7895 C.ar    1  UNL1        0.1343
     21 S         141.3699  139.8446  169.8455 S.2     1  UNL1       -0.0665
     22 C         139.5931  138.8749  157.6977 C.3     1  UNL1        0.1747
     23 N         139.3644  137.4666  157.2347 N.pl3   1  UNL1       -0.3106
     24 H         139.2166  136.7498  157.8932 H       1  UNL1        0.1486
     25 C         139.3608  137.1504  155.7683 C.ar    1  UNL1        0.1302
     26 N         138.2915  137.7164  154.8817 N.ar    1  UNL1       -0.2293
     27 C         138.2880  137.4002  153.4154 C.ar    1  UNL1        0.1018
     28 C         139.3538  136.5180  152.8358 C.ar    1  UNL1        0.0399
     29 C         140.4231  135.9520  153.7225 C.ar    1  UNL1        0.0855
     30 N         141.4888  135.0699  153.1429 N.ar    1  UNL1       -0.2438
     31 C         142.5581  134.5039  154.0296 C.ar    1  UNL1        0.1027
     32 C         142.5617  134.8201  155.4959 C.ar    1  UNL1        0.0906
     33 C         141.4959  135.7022  156.0755 C.ar    1  UNL1        0.0097
     34 C         140.4266  136.2682  155.1887 C.ar    1  UNL1        0.0491
     35 C         143.6310  134.2541  156.3826 C.3     1  UNL1        0.4200
     36 F         144.7003  133.6881  157.2693 F       1  UNL1       -0.1658
     37 F         143.9650  133.2379  155.3311 F       1  UNL1       -0.1658
     38 F         143.2970  135.2703  157.4341 F       1  UNL1       -0.1658
@<TRIPOS>BOND
     1     1     2    2
     2     2    22    1
     3    22    23    1
     4    23    25    1
     5    25    26   ar
     6    26    27   ar
     7    27    28   ar
     8    28    29   ar
     9    29    30   ar
    10    30    31   ar
    11    31    32   ar
    12    32    35    1
    13    35    36    1
    14    35    37    1
    15    35    38    1
    16    32    33   ar
    17    33    34   ar
    18     2     3   am
    19     3     5    1
    20     5     6    1
    21     6     7    1
    22     9     7    1
    23     9    10    1
    24    10    11    1
    25    11    12    1
    26    12    13    1
    27    12    17    1
    28    17    18   ar
    29    18    19   ar
    30    19    20   ar
    31    20    21   ar
    32    12    14    1
    33    14    15    1
    34     7     8    1
    35    34    25   ar
    36     8     5    1
    37    34    29   ar
    38    15     9    1
    39    21    17   ar
    40    23    24    1
    41     3     4    1
    42    13    16    1
@<TRIPOS>MOLECULE
*****
 38 42 0 0 0
SMALL
GASTEIGER

@<TRIPOS>ATOM
      1 O         138.6863  139.2954  159.8518 O.2     1  UNL1       -0.2733
      2 C         139.8350  138.7780  159.0375 C.2     1  UNL1        0.2425
      3 N         141.1409  138.4571  159.7020 N.am    1  UNL1       -0.3018
      4 H         141.8948  138.1175  159.1676 H       1  UNL1        0.1495
      5 C         141.2982  138.6536  161.1808 C.3     1  UNL1        0.1035
      6 C         141.7243  139.7915  162.0601 C.3     1  UNL1        0.0933
      7 N         141.5205  138.9314  163.2721 N.3     1  UNL1       -0.2711
      8 C         141.0943  137.7935  162.3927 C.3     1  UNL1        0.0933
      9 C         141.6778  139.1279  164.7508 C.3     1  UNL1        0.0578
     10 C         142.9577  138.7359  165.4275 C.3     1  UNL1        0.0187
     11 C         143.1150  138.9323  166.9063 C.3     1  UNL1        0.0331
     12 C         141.9923  139.5208  167.7083 C.3     1  UNL1        0.1140
     13 O         143.0045  139.3074  168.7945 O.3     1  UNL1       -0.3821
     14 C         140.7123  139.9129  167.0315 C.3     1  UNL1        0.0331
     15 C         140.5551  139.7164  165.5528 C.3     1  UNL1        0.0187
     16 H         143.8089  138.9201  168.4154 H       1  UNL1        0.2107
     17 C         141.2211  140.0352  168.8875 C.ar    1  UNL1        0.0518
     18 C         139.7316  140.1946  168.9654 C.ar    1  UNL1        0.1039
     19 N         139.3940  140.7384  170.3219 N.ar    1  UNL1       -0.2350
     20 C         140.6748  140.9152  171.0824 C.ar    1  UNL1        0.1343
     21 S         141.8040  140.4806  170.1959 S.2     1  UNL1       -0.0665
     22 C         139.6777  138.5815  157.5588 C.3     1  UNL1        0.1747
     23 N         139.2783  137.2403  157.0187 N.pl3   1  UNL1       -0.3106
     24 H         138.9503  136.5414  157.6296 H       1  UNL1        0.1486
     25 C         139.3786  136.9639  155.5477 C.ar    1  UNL1        0.1302
     26 N         138.3659  137.5431  154.6050 N.ar    1  UNL1       -0.2293
     27 C         138.4663  137.2667  153.1341 C.ar    1  UNL1        0.1018
     28 C         139.5794  136.4112  152.6060 C.ar    1  UNL1        0.0399
     29 C         140.5922  135.8320  153.5488 C.ar    1  UNL1        0.0855
     30 N         141.7054  134.9765  153.0206 N.ar    1  UNL1       -0.2438
     31 C         142.7181  134.3973  153.9634 C.ar    1  UNL1        0.1027
     32 C         142.6178  134.6737  155.4343 C.ar    1  UNL1        0.0906
     33 C         141.5046  135.5292  155.9625 C.ar    1  UNL1        0.0097
     34 C         140.4918  136.1084  155.0196 C.ar    1  UNL1        0.0491
     35 C         143.6305  134.0945  156.3771 C.3     1  UNL1        0.4200
     36 F         144.6433  133.5152  157.3199 F       1  UNL1       -0.1658
     37 F         143.4037  135.2367  157.3225 F       1  UNL1       -0.1658
     38 F         143.8573  132.9522  155.4317 F       1  UNL1       -0.1658
@<TRIPOS>BOND
     1     1     2    2
     2     2    22    1
     3    22    23    1
     4    23    25    1
     5    25    26   ar
     6    26    27   ar
     7    27    28   ar
     8    28    29   ar
     9    29    30   ar
    10    30    31   ar
    11    31    32   ar
    12    32    35    1
    13    35    36    1
    14    35    37    1
    15    35    38    1
    16    32    33   ar
    17    33    34   ar
    18     2     3   am
    19     3     5    1
    20     5     6    1
    21     6     7    1
    22     9     7    1
    23     9    10    1
    24    10    11    1
    25    11    12    1
    26    12    13    1
    27    12    17    1
    28    17    18   ar
    29    18    19   ar
    30    19    20   ar
    31    20    21   ar
    32    12    14    1
    33    14    15    1
    34     7     8    1
    35    34    25   ar
    36     8     5    1
    37    34    29   ar
    38    15     9    1
    39    21    17   ar
    40    23    24    1
    41     3     4    1
    42    13    16    1
@<TRIPOS>MOLECULE
*****
 38 42 0 0 0
SMALL
GASTEIGER

@<TRIPOS>ATOM
      1 O         142.2413  144.5310  160.6597 O.2     1  UNL1       -0.2733
      2 C         140.9215  144.9054  160.0530 C.2     1  UNL1        0.2425
      3 N         139.6471  144.6012  160.7832 N.am    1  UNL1       -0.3018
      4 H         138.7809  144.8468  160.3850 H       1  UNL1        0.1495
      5 C         139.6924  143.9225  162.1202 C.3     1  UNL1        0.1035
      6 C         138.8840  144.0075  163.3808 C.3     1  UNL1        0.0933
      7 N         139.7567  142.9628  164.0110 N.3     1  UNL1       -0.2711
      8 C         140.5652  142.8779  162.7503 C.3     1  UNL1        0.0933
      9 C         139.8021  142.2842  165.3479 C.3     1  UNL1        0.0578
     10 C         139.1887  140.9264  165.5209 C.3     1  UNL1        0.0187
     11 C         139.2341  140.2477  166.8579 C.3     1  UNL1        0.0331
     12 C         139.8929  140.9270  168.0218 C.3     1  UNL1        0.1140
     13 O         139.4555  139.6511  168.6782 O.3     1  UNL1       -0.3821
     14 C         140.5063  142.2849  167.8487 C.3     1  UNL1        0.0331
     15 C         140.4609  142.9635  166.5118 C.3     1  UNL1        0.0187
     16 H         139.0004  139.0927  168.0285 H       1  UNL1        0.2107
     17 C         140.3998  141.1631  169.4136 C.ar    1  UNL1        0.0518
     18 C         139.8482  142.1526  170.3968 C.ar    1  UNL1        0.1039
     19 N         140.6548  142.0523  171.6575 N.ar    1  UNL1       -0.2350
     20 C         141.7049  141.0007  171.4534 C.ar    1  UNL1        0.1343
     21 S         141.5473  140.4512  170.0667 S.2     1  UNL1       -0.0665
     22 C         140.8762  145.5840  158.7160 C.3     1  UNL1        0.1747
     23 N         140.8767  144.7654  157.4591 N.pl3   1  UNL1       -0.3106
     24 H         141.7031  144.3208  157.1615 H       1  UNL1        0.1486
     25 C         139.6179  144.6242  156.6555 C.ar    1  UNL1        0.1302
     26 N         139.2129  145.7070  155.6997 N.ar    1  UNL1       -0.2293
     27 C         137.9542  145.5658  154.8962 C.ar    1  UNL1        0.1018
     28 C         137.1005  144.3418  155.0484 C.ar    1  UNL1        0.0399
     29 C         137.5056  143.2591  156.0042 C.ar    1  UNL1        0.0855
     30 N         136.6519  142.0351  156.1565 N.ar    1  UNL1       -0.2438
     31 C         137.0569  140.9524  157.1123 C.ar    1  UNL1        0.1027
     32 C         138.3157  141.0936  157.9159 C.ar    1  UNL1        0.0906
     33 C         139.1693  142.3175  157.7636 C.ar    1  UNL1        0.0097
     34 C         138.7643  143.4003  156.8078 C.ar    1  UNL1        0.0491
     35 C         138.7207  140.0108  158.8717 C.3     1  UNL1        0.4200
     36 F         139.1258  138.9280  159.8276 F       1  UNL1       -0.1658
     37 F         137.3386  140.0084  159.4546 F       1  UNL1       -0.1658
     38 F         140.1027  140.0133  158.2888 F       1  UNL1       -0.1658
@<TRIPOS>BOND
     1     1     2    2
     2     2    22    1
     3    22    23    1
     4    23    25    1
     5    25    26   ar
     6    26    27   ar
     7    27    28   ar
     8    28    29   ar
     9    29    30   ar
    10    30    31   ar
    11    31    32   ar
    12    32    35    1
    13    35    36    1
    14    35    37    1
    15    35    38    1
    16    32    33   ar
    17    33    34   ar
    18     2     3   am
    19     3     5    1
    20     5     6    1
    21     6     7    1
    22     9     7    1
    23     9    10    1
    24    10    11    1
    25    11    12    1
    26    12    13    1
    27    12    17    1
    28    17    18   ar
    29    18    19   ar
    30    19    20   ar
    31    20    21   ar
    32    12    14    1
    33    14    15    1
    34     7     8    1
    35    34    25   ar
    36     8     5    1
    37    34    29   ar
    38    15     9    1
    39    21    17   ar
    40    23    24    1
    41     3     4    1
    42    13    16    1
@<TRIPOS>MOLECULE
*****
 38 42 0 0 0
SMALL
GASTEIGER

@<TRIPOS>ATOM
      1 O         144.1433  144.6725  162.6206 O.2     1  UNL1       -0.2733
      2 C         142.8604  143.9143  162.7921 C.2     1  UNL1        0.2425
      3 N         142.4168  142.9428  161.7388 N.am    1  UNL1       -0.3018
      4 H         141.5748  142.4452  161.8513 H       1  UNL1        0.1495
      5 C         143.2561  142.7295  160.5139 C.3     1  UNL1        0.1035
      6 C         143.2984  143.3289  159.1396 C.3     1  UNL1        0.0933
      7 N         144.4431  142.4279  158.7819 N.3     1  UNL1       -0.2711
      8 C         144.4008  141.8285  160.1563 C.3     1  UNL1        0.0933
      9 C         145.2824  142.2146  157.5571 C.3     1  UNL1        0.0578
     10 C         144.7312  141.4423  156.3954 C.3     1  UNL1        0.0187
     11 C         145.5705  141.2290  155.1706 C.3     1  UNL1        0.0331
     12 C         146.9610  141.7880  155.1075 C.3     1  UNL1        0.1140
     13 O         146.8834  141.1305  153.7616 O.3     1  UNL1       -0.3821
     14 C         147.5122  142.5604  156.2693 C.3     1  UNL1        0.0331
     15 C         146.6729  142.7737  157.4941 C.3     1  UNL1        0.0187
     16 H         146.0141  140.7134  153.6552 H       1  UNL1        0.2107
     17 C         148.3245  142.1188  154.5771 C.ar    1  UNL1        0.0518
     18 C         149.6296  141.6366  155.1378 C.ar    1  UNL1        0.1039
     19 N         150.7340  142.2096  154.3000 N.ar    1  UNL1       -0.2350
     20 C         150.1115  143.0459  153.2215 C.ar    1  UNL1        0.1343
     21 S         148.6224  142.9898  153.3927 S.2     1  UNL1       -0.0665
     22 C         142.0211  144.1275  164.0169 C.3     1  UNL1        0.1747
     23 N         141.1969  143.0013  164.5668 N.pl3   1  UNL1       -0.3106
     24 H         140.2165  143.0818  164.6047 H       1  UNL1        0.1486
     25 C         141.8667  141.7525  165.0588 C.ar    1  UNL1        0.1302
     26 N         142.6182  140.8770  164.1003 N.ar    1  UNL1       -0.2293
     27 C         143.2878  139.6283  164.5924 C.ar    1  UNL1        0.1018
     28 C         143.2060  139.2551  166.0429 C.ar    1  UNL1        0.0399
     29 C         142.4545  140.1306  167.0014 C.ar    1  UNL1        0.0855
     30 N         142.3726  139.7573  168.4519 N.ar    1  UNL1       -0.2438
     31 C         141.6211  140.6328  169.4104 C.ar    1  UNL1        0.1027
     32 C         140.9514  141.8816  168.9183 C.ar    1  UNL1        0.0906
     33 C         141.0332  142.2549  167.4678 C.ar    1  UNL1        0.0097
     34 C         141.7848  141.3793  166.5093 C.ar    1  UNL1        0.0491
     35 C         140.1999  142.7571  169.8768 C.3     1  UNL1        0.4200
     36 F         139.4484  143.6327  170.8353 F       1  UNL1       -0.1658
     37 F         139.1831  141.6717  170.0710 F       1  UNL1       -0.1658
     38 F         141.2167  143.8426  169.6825 F       1  UNL1       -0.1658
@<TRIPOS>BOND
     1     1     2    2
     2     2    22    1
     3    22    23    1
     4    23    25    1
     5    25    26   ar
     6    26    27   ar
     7    27    28   ar
     8    28    29   ar
     9    29    30   ar
    10    30    31   ar
    11    31    32   ar
    12    32    35    1
    13    35    36    1
    14    35    37    1
    15    35    38    1
    16    32    33   ar
    17    33    34   ar
    18     2     3   am
    19     3     5    1
    20     5     6    1
    21     6     7    1
    22     9     7    1
    23     9    10    1
    24    10    11    1
    25    11    12    1
    26    12    13    1
    27    12    17    1
    28    17    18   ar
    29    18    19   ar
    30    19    20   ar
    31    20    21   ar
    32    12    14    1
    33    14    15    1
    34     7     8    1
    35    34    25   ar
    36     8     5    1
    37    34    29   ar
    38    15     9    1
    39    21    17   ar
    40    23    24    1
    41     3     4    1
    42    13    16    1
@<TRIPOS>MOLECULE
*****
 38 42 0 0 0
SMALL
GASTEIGER

@<TRIPOS>ATOM
      1 O         144.1519  139.5830  159.2049 O.2     1  UNL1       -0.2733
      2 C         143.7811  140.4378  158.0293 C.2     1  UNL1        0.2425
      3 N         143.2895  139.8002  156.7637 N.am    1  UNL1       -0.3018
      4 H         143.0462  140.3612  155.9921 H       1  UNL1        0.1495
      5 C         143.1688  138.3077  156.6737 C.3     1  UNL1        0.1035
      6 C         143.7767  137.2448  155.8075 C.3     1  UNL1        0.0933
      7 N         142.9980  136.1971  156.5464 N.3     1  UNL1       -0.2711
      8 C         142.3900  137.2601  157.4127 C.3     1  UNL1        0.0933
      9 C         142.8772  134.7047  156.4564 C.3     1  UNL1        0.0578
     10 C         141.8239  134.0888  155.5840 C.3     1  UNL1        0.0187
     11 C         141.7031  132.5963  155.4939 C.3     1  UNL1        0.0331
     12 C         142.6356  131.7199  156.2764 C.3     1  UNL1        0.1140
     13 O         141.8061  130.6733  155.5933 O.3     1  UNL1       -0.3821
     14 C         143.6889  132.3358  157.1489 C.3     1  UNL1        0.0331
     15 C         143.8096  133.8282  157.2389 C.3     1  UNL1        0.0187
     16 H         141.1392  131.1029  155.0351 H       1  UNL1        0.2107
     17 C         143.2799  130.4800  156.8217 C.ar    1  UNL1        0.0518
     18 C         144.3315  130.4297  157.8902 C.ar    1  UNL1        0.1039
     19 N         144.6874  128.9912  158.1230 N.ar    1  UNL1       -0.2350
     20 C         143.8557  128.1525  157.1983 C.ar    1  UNL1        0.1343
     21 S         142.9860  129.0725  156.3941 S.2     1  UNL1       -0.0665
     22 C         143.9019  141.9302  158.1194 C.3     1  UNL1        0.1747
     23 N         143.7365  142.6176  159.4423 N.pl3   1  UNL1       -0.3106
     24 H         144.4112  142.4947  160.1486 H       1  UNL1        0.1486
     25 C         142.5431  143.4922  159.6891 C.ar    1  UNL1        0.1302
     26 N         141.5710  143.7651  158.5798 N.ar    1  UNL1       -0.2293
     27 C         140.3777  144.6397  158.8265 C.ar    1  UNL1        0.1018
     28 C         140.1564  145.2414  160.1826 C.ar    1  UNL1        0.0399
     29 C         141.1284  144.9685  161.2919 C.ar    1  UNL1        0.0855
     30 N         140.9071  145.5703  162.6480 N.ar    1  UNL1       -0.2438
     31 C         141.8792  145.2974  163.7573 C.ar    1  UNL1        0.1027
     32 C         143.0726  144.4227  163.5106 C.ar    1  UNL1        0.0906
     33 C         143.2939  143.8210  162.1545 C.ar    1  UNL1        0.0097
     34 C         142.3218  144.0939  161.0451 C.ar    1  UNL1        0.0491
     35 C         144.0447  144.1498  164.6199 C.3     1  UNL1        0.4200
     36 F         145.0168  143.8770  165.7292 F       1  UNL1       -0.1658
     37 F         143.8449  142.6751  164.4322 F       1  UNL1       -0.1658
     38 F         144.2445  145.6245  164.8075 F       1  UNL1       -0.1658
@<TRIPOS>BOND
     1     1     2    2
     2     2    22    1
     3    22    23    1
     4    23    25    1
     5    25    26   ar
     6    26    27   ar
     7    27    28   ar
     8    28    29   ar
     9    29    30   ar
    10    30    31   ar
    11    31    32   ar
    12    32    35    1
    13    35    36    1
    14    35    37    1
    15    35    38    1
    16    32    33   ar
    17    33    34   ar
    18     2     3   am
    19     3     5    1
    20     5     6    1
    21     6     7    1
    22     9     7    1
    23     9    10    1
    24    10    11    1
    25    11    12    1
    26    12    13    1
    27    12    17    1
    28    17    18   ar
    29    18    19   ar
    30    19    20   ar
    31    20    21   ar
    32    12    14    1
    33    14    15    1
    34     7     8    1
    35    34    25   ar
    36     8     5    1
    37    34    29   ar
    38    15     9    1
    39    21    17   ar
    40    23    24    1
    41     3     4    1
    42    13    16    1
@<TRIPOS>MOLECULE
*****
 38 42 0 0 0
SMALL
GASTEIGER

@<TRIPOS>ATOM
      1 O         141.1325  142.2625  164.1255 O.2     1  UNL1       -0.2733
      2 C         142.5014  142.7606  164.4835 C.2     1  UNL1        0.2425
      3 N         143.2993  143.5447  163.4842 N.am    1  UNL1       -0.3018
      4 H         144.1977  143.8716  163.7191 H       1  UNL1        0.1495
      5 C         142.7283  143.8306  162.1269 C.3     1  UNL1        0.1035
      6 C         143.0114  143.3504  160.7344 C.3     1  UNL1        0.0933
      7 N         141.9207  144.2351  160.2074 N.3     1  UNL1       -0.2711
      8 C         141.6375  144.7153  161.6000 C.3     1  UNL1        0.0933
      9 C         141.3496  144.5211  158.8502 C.3     1  UNL1        0.0578
     10 C         141.8677  145.6771  158.0470 C.3     1  UNL1        0.0187
     11 C         141.2967  145.9631  156.6897 C.3     1  UNL1        0.0331
     12 C         140.2076  145.0931  156.1357 C.3     1  UNL1        0.1140
     13 O         140.3666  146.0641  155.0035 O.3     1  UNL1       -0.3821
     14 C         139.6895  143.9370  156.9390 C.3     1  UNL1        0.0331
     15 C         140.2606  143.6510  158.2962 C.3     1  UNL1        0.0187
     16 H         141.0580  146.7076  155.2242 H       1  UNL1        0.2107
     17 C         139.1737  144.5603  155.1885 C.ar    1  UNL1        0.0518
     18 C         139.3745  143.4543  154.1952 C.ar    1  UNL1        0.1039
     19 N         138.0824  143.2504  153.4611 N.ar    1  UNL1       -0.2350
     20 C         137.0831  144.2304  154.0007 C.ar    1  UNL1        0.1343
     21 S         137.7575  145.0398  155.0682 S.2     1  UNL1       -0.0665
     22 C         143.0724  142.4746  165.8408 C.3     1  UNL1        0.1747
     23 N         142.8101  141.1539  166.5017 N.pl3   1  UNL1       -0.3106
     24 H         143.3085  140.3538  166.2179 H       1  UNL1        0.1486
     25 C         141.7882  141.0522  167.5952 C.ar    1  UNL1        0.1302
     26 N         142.0147  141.7548  168.9010 N.ar    1  UNL1       -0.2293
     27 C         140.9929  141.6531  169.9944 C.ar    1  UNL1        0.1018
     28 C         139.7446  140.8489  169.7820 C.ar    1  UNL1        0.0399
     29 C         139.5182  140.1464  168.4762 C.ar    1  UNL1        0.0855
     30 N         138.2699  139.3422  168.2637 N.ar    1  UNL1       -0.2438
     31 C         138.0434  138.6397  166.9580 C.ar    1  UNL1        0.1027
     32 C         139.0652  138.7414  165.8645 C.ar    1  UNL1        0.0906
     33 C         140.3135  139.5455  166.0769 C.ar    1  UNL1        0.0097
     34 C         140.5400  140.2481  167.3828 C.ar    1  UNL1        0.0491
     35 C         138.8388  138.0389  164.5587 C.3     1  UNL1        0.4200
     36 F         138.6123  137.3363  163.2528 F       1  UNL1       -0.1658
     37 F         139.2779  139.2688  163.8208 F       1  UNL1       -0.1658
     38 F         138.3996  136.8090  165.2965 F       1  UNL1       -0.1658
@<TRIPOS>BOND
     1     1     2    2
     2     2    22    1
     3    22    23    1
     4    23    25    1
     5    25    26   ar
     6    26    27   ar
     7    27    28   ar
     8    28    29   ar
     9    29    30   ar
    10    30    31   ar
    11    31    32   ar
    12    32    35    1
    13    35    36    1
    14    35    37    1
    15    35    38    1
    16    32    33   ar
    17    33    34   ar
    18     2     3   am
    19     3     5    1
    20     5     6    1
    21     6     7    1
    22     9     7    1
    23     9    10    1
    24    10    11    1
    25    11    12    1
    26    12    13    1
    27    12    17    1
    28    17    18   ar
    29    18    19   ar
    30    19    20   ar
    31    20    21   ar
    32    12    14    1
    33    14    15    1
    34     7     8    1
    35    34    25   ar
    36     8     5    1
    37    34    29   ar
    38    15     9    1
    39    21    17   ar
    40    23    24    1
    41     3     4    1
    42    13    16    1
@<TRIPOS>MOLECULE
*****
 38 42 0 0 0
SMALL
GASTEIGER

@<TRIPOS>ATOM
      1 O         139.4400  144.2153  159.6275 O.2     1  UNL1       -0.2733
      2 C         140.6746  145.0656  159.5723 C.2     1  UNL1        0.2425
      3 N         141.5972  145.1258  160.7535 N.am    1  UNL1       -0.3018
      4 H         142.4075  145.6838  160.7172 H       1  UNL1        0.1495
      5 C         141.2852  144.3358  161.9899 C.3     1  UNL1        0.1035
      6 C         140.3105  144.4772  163.1211 C.3     1  UNL1        0.0933
      7 N         140.8441  143.2185  163.7384 N.3     1  UNL1       -0.2711
      8 C         141.8190  143.0771  162.6071 C.3     1  UNL1        0.0933
      9 C         140.5322  142.4285  164.9747 C.3     1  UNL1        0.0578
     10 C         139.5773  141.2738  164.9058 C.3     1  UNL1        0.0187
     11 C         139.2653  140.4838  166.1422 C.3     1  UNL1        0.0331
     12 C         139.9084  140.8484  167.4474 C.3     1  UNL1        0.1140
     13 O         139.0764  139.6794  167.8845 O.3     1  UNL1       -0.3821
     14 C         140.8634  142.0032  167.5162 C.3     1  UNL1        0.0331
     15 C         141.1753  142.7932  166.2799 C.3     1  UNL1        0.0187
     16 H         138.5884  139.3273  167.1237 H       1  UNL1        0.2107
     17 C         140.2625  140.8071  168.9044 C.ar    1  UNL1        0.0518
     18 C         139.3614  140.3633  170.0185 C.ar    1  UNL1        0.1039
     19 N         140.1219  140.4842  171.3057 N.ar    1  UNL1       -0.2350
     20 C         141.4929  141.0028  170.9872 C.ar    1  UNL1        0.1343
     21 S         141.5798  141.2023  169.5031 S.2     1  UNL1       -0.0665
     22 C         140.9865  145.8555  158.3359 C.3     1  UNL1        0.1747
     23 N         140.0298  145.8492  157.1806 N.pl3   1  UNL1       -0.3106
     24 H         139.0603  145.8984  157.3441 H       1  UNL1        0.1486
     25 C         140.5505  145.7677  155.7762 C.ar    1  UNL1        0.1302
     26 N         141.2323  144.5192  155.3003 N.ar    1  UNL1       -0.2293
     27 C         141.7529  144.4378  153.8959 C.ar    1  UNL1        0.1018
     28 C         141.5918  145.6049  152.9675 C.ar    1  UNL1        0.0399
     29 C         140.9100  146.8533  153.4434 C.ar    1  UNL1        0.0855
     30 N         140.7489  148.0204  152.5149 N.ar    1  UNL1       -0.2438
     31 C         140.0671  149.2688  152.9908 C.ar    1  UNL1        0.1027
     32 C         139.5464  149.3503  154.3952 C.ar    1  UNL1        0.0906
     33 C         139.7076  148.1832  155.3237 C.ar    1  UNL1        0.0097
     34 C         140.3894  146.9347  154.8477 C.ar    1  UNL1        0.0491
     35 C         138.8647  150.5987  154.8711 C.3     1  UNL1        0.4200
     36 F         138.1828  151.8472  155.3470 F       1  UNL1       -0.1658
     37 F         139.6753  151.4099  153.9043 F       1  UNL1       -0.1658
     38 F         138.0541  149.7875  155.8379 F       1  UNL1       -0.1658
@<TRIPOS>BOND
     1     1     2    2
     2     2    22    1
     3    22    23    1
     4    23    25    1
     5    25    26   ar
     6    26    27   ar
     7    27    28   ar
     8    28    29   ar
     9    29    30   ar
    10    30    31   ar
    11    31    32   ar
    12    32    35    1
    13    35    36    1
    14    35    37    1
    15    35    38    1
    16    32    33   ar
    17    33    34   ar
    18     2     3   am
    19     3     5    1
    20     5     6    1
    21     6     7    1
    22     9     7    1
    23     9    10    1
    24    10    11    1
    25    11    12    1
    26    12    13    1
    27    12    17    1
    28    17    18   ar
    29    18    19   ar
    30    19    20   ar
    31    20    21   ar
    32    12    14    1
    33    14    15    1
    34     7     8    1
    35    34    25   ar
    36     8     5    1
    37    34    29   ar
    38    15     9    1
    39    21    17   ar
    40    23    24    1
    41     3     4    1
    42    13    16    1
