@<TRIPOS>MOLECULE
*****
 29 33 0 0 0
SMALL
GASTEIGER

@<TRIPOS>ATOM
      1 C         142.1509  137.5250  157.4219 C.3     1  UNL1        0.0181
      2 C         142.9667  136.4034  156.8504 C.3     1  UNL1        0.0036
      3 C         143.5239  135.2229  156.1114 C.3     1  UNL1        0.0227
      4 C         142.4580  134.7070  155.1908 C.3     1  UNL1        0.0870
      5 C         141.2419  135.5685  155.3607 C.3     1  UNL1        0.0227
      6 C         141.5563  136.6169  156.3864 C.3     1  UNL1        0.0036
      7 N         142.5856  133.5352  154.2630 N.ar    1  UNL1       -0.3109
      8 C         141.9512  133.4090  152.9097 C.ar    1  UNL1        0.1785
      9 N         142.3436  132.0797  152.3361 N.ar    1  UNL1       -0.2239
     10 C         143.2205  131.3844  153.3349 C.ar    1  UNL1        0.0988
     11 C         143.9022  130.0485  153.3138 C.ar    1  UNL1        0.0206
     12 C         144.7334  129.6120  154.4836 C.ar    1  UNL1        0.0016
     13 C         144.8829  130.5116  155.6746 C.ar    1  UNL1        0.0016
     14 C         144.2013  131.8476  155.6957 C.ar    1  UNL1        0.0188
     15 C         143.3701  132.2840  154.5258 C.ar    1  UNL1        0.0789
     16 C         142.0232  138.6967  158.3495 C.3     1  UNL1        0.0718
     17 N         141.1911  138.5822  159.5923 N.am    1  UNL1       -0.3025
     18 C         141.7799  137.9869  160.8369 C.2     1  UNL1        0.2458
     19 O         143.2008  137.5061  160.8387 O.2     1  UNL1       -0.2701
     20 H         140.2586  138.8977  159.5911 H       1  UNL1        0.1497
     21 C         140.9478  137.8724  162.0798 C.ar    1  UNL1        0.0534
     22 C         141.6010  137.5615  163.3937 C.ar    1  UNL1        0.0054
     23 C         140.7690  137.4470  164.6365 C.ar    1  UNL1        0.0115
     24 C         139.2836  137.6434  164.5653 C.ar    1  UNL1        0.0577
     25 CL        138.4515  137.5290  165.8081 Cl      1  UNL1       -0.0822
     26 C         138.6303  137.9544  163.2513 C.ar    1  UNL1        0.0115
     27 C         139.4624  138.0689  162.0085 C.ar    1  UNL1        0.0054
     28 C         143.8688  140.4428  158.8924 C.3     1  UNL1        0.0017
     29 C         142.7276  139.9830  158.0345 C.3     1  UNL1        0.0196
@<TRIPOS>BOND
     1    28    29    1
     2    29    16    1
     3    16    17    1
     4    17    18   am
     5    18    19    2
     6    18    21    1
     7    21    22   ar
     8    22    23   ar
     9    23    24   ar
    10    24    25    1
    11    24    26   ar
    12    26    27   ar
    13     1    16    1
    14     1     2    1
    15     2     3    1
    16     3     4    1
    17     4     7    1
    18     7     8   ar
    19     8     9   ar
    20     9    10   ar
    21    10    11   ar
    22    11    12   ar
    23    12    13   ar
    24    13    14   ar
    25    14    15   ar
    26     4     5    1
    27     6     5    1
    28    27    21   ar
    29     6     1    1
    30     6     2    1
    31    15     7   ar
    32    15    10   ar
    33    17    20    1
@<TRIPOS>MOLECULE
*****
 29 33 0 0 0
SMALL
GASTEIGER

@<TRIPOS>ATOM
      1 C         140.0776  138.2108  157.5587 C.3     1  UNL1        0.0181
      2 C         140.2702  138.2850  159.0445 C.3     1  UNL1        0.0036
      3 C         140.2259  138.5644  160.5176 C.3     1  UNL1        0.0227
      4 C         139.1331  139.5610  160.7678 C.3     1  UNL1        0.0870
      5 C         138.5019  139.8975  159.4493 C.3     1  UNL1        0.0227
      6 C         139.2047  139.1090  158.3843 C.3     1  UNL1        0.0036
      7 N         138.7403  140.1224  162.1021 N.ar    1  UNL1       -0.3109
      8 C         138.3464  141.5429  162.3796 C.ar    1  UNL1        0.1785
      9 N         138.0351  141.6603  163.8423 N.ar    1  UNL1       -0.2239
     10 C         138.2367  140.3124  164.4687 C.ar    1  UNL1        0.0988
     11 C         138.0797  139.8277  165.8795 C.ar    1  UNL1        0.0206
     12 C         138.3585  138.3925  166.2148 C.ar    1  UNL1        0.0016
     13 C         138.7944  137.4420  165.1394 C.ar    1  UNL1        0.0016
     14 C         138.9514  137.9267  163.7286 C.ar    1  UNL1        0.0188
     15 C         138.6725  139.3619  163.3933 C.ar    1  UNL1        0.0789
     16 C         140.4703  137.6494  156.2244 C.3     1  UNL1        0.0718
     17 N         141.0476  136.2680  156.1324 N.am    1  UNL1       -0.3025
     18 C         142.4881  136.0326  156.4780 C.2     1  UNL1        0.2458
     19 O         143.3514  137.1786  156.9157 O.2     1  UNL1       -0.2701
     20 H         140.4810  135.5159  155.8452 H       1  UNL1        0.1497
     21 C         143.0654  134.6511  156.3860 C.ar    1  UNL1        0.0534
     22 C         142.8808  133.8428  155.1361 C.ar    1  UNL1        0.0054
     23 C         143.4580  132.4614  155.0441 C.ar    1  UNL1        0.0115
     24 C         144.2200  131.8883  156.2021 C.ar    1  UNL1        0.0577
     25 CL        144.7972  130.5069  156.1101 Cl      1  UNL1       -0.0822
     26 C         144.4047  132.6966  157.4521 C.ar    1  UNL1        0.0115
     27 C         143.8274  134.0780  157.5441 C.ar    1  UNL1        0.0054
     28 C         138.9305  139.0099  154.6344 C.3     1  UNL1        0.0017
     29 C         140.2858  138.4694  154.9819 C.3     1  UNL1        0.0196
@<TRIPOS>BOND
     1    28    29    1
     2    29    16    1
     3    16    17    1
     4    17    18   am
     5    18    19    2
     6    18    21    1
     7    21    22   ar
     8    22    23   ar
     9    23    24   ar
    10    24    25    1
    11    24    26   ar
    12    26    27   ar
    13     1    16    1
    14     1     2    1
    15     2     3    1
    16     3     4    1
    17     4     7    1
    18     7     8   ar
    19     8     9   ar
    20     9    10   ar
    21    10    11   ar
    22    11    12   ar
    23    12    13   ar
    24    13    14   ar
    25    14    15   ar
    26     4     5    1
    27     6     5    1
    28    27    21   ar
    29     6     1    1
    30     6     2    1
    31    15     7   ar
    32    15    10   ar
    33    17    20    1
@<TRIPOS>MOLECULE
*****
 29 33 0 0 0
SMALL
GASTEIGER

@<TRIPOS>ATOM
      1 C         140.3175  145.0810  158.5203 C.3     1  UNL1        0.0181
      2 C         140.3363  145.5702  159.9382 C.3     1  UNL1        0.0036
      3 C         140.2874  145.7608  161.4253 C.3     1  UNL1        0.0227
      4 C         139.9679  144.4362  162.0523 C.3     1  UNL1        0.0870
      5 C         139.8194  143.4267  160.9528 C.3     1  UNL1        0.0227
      6 C         140.0470  144.1275  159.6463 C.3     1  UNL1        0.0036
      7 N         139.8226  144.1680  163.5209 N.ar    1  UNL1       -0.3109
      8 C         138.7152  144.6646  164.4025 C.ar    1  UNL1        0.1785
      9 N         138.9673  144.1596  165.7922 N.ar    1  UNL1       -0.2239
     10 C         140.2305  143.3510  165.7696 C.ar    1  UNL1        0.0988
     11 C         140.9677  142.6107  166.8459 C.ar    1  UNL1        0.0206
     12 C         142.2335  141.8756  166.5184 C.ar    1  UNL1        0.0016
     13 C         142.7621  141.8808  165.1146 C.ar    1  UNL1        0.0016
     14 C         142.0249  142.6211  164.0384 C.ar    1  UNL1        0.0188
     15 C         140.7591  143.3562  164.3659 C.ar    1  UNL1        0.0789
     16 C         140.4629  145.3492  157.0517 C.3     1  UNL1        0.0718
     17 N         140.4027  146.7567  156.5367 N.am    1  UNL1       -0.3025
     18 C         139.2443  147.1972  155.6916 C.2     1  UNL1        0.2458
     19 O         138.1461  146.2302  155.3615 O.2     1  UNL1       -0.2701
     20 H         141.1234  147.3914  156.7533 H       1  UNL1        0.1497
     21 C         139.1841  148.6048  155.1766 C.ar    1  UNL1        0.0534
     22 C         139.7633  148.9374  153.8336 C.ar    1  UNL1        0.0054
     23 C         139.7031  150.3449  153.3186 C.ar    1  UNL1        0.0115
     24 C         139.0636  151.4198  154.1466 C.ar    1  UNL1        0.0577
     25 CL        139.0034  152.8273  153.6316 Cl      1  UNL1       -0.0822
     26 C         138.4843  151.0872  155.4897 C.ar    1  UNL1        0.0115
     27 C         138.5445  149.6797  156.0047 C.ar    1  UNL1        0.0054
     28 C         141.4815  144.4106  154.8536 C.3     1  UNL1        0.0017
     29 C         140.6685  144.2097  156.0979 C.3     1  UNL1        0.0196
@<TRIPOS>BOND
     1    28    29    1
     2    29    16    1
     3    16    17    1
     4    17    18   am
     5    18    19    2
     6    18    21    1
     7    21    22   ar
     8    22    23   ar
     9    23    24   ar
    10    24    25    1
    11    24    26   ar
    12    26    27   ar
    13     1    16    1
    14     1     2    1
    15     2     3    1
    16     3     4    1
    17     4     7    1
    18     7     8   ar
    19     8     9   ar
    20     9    10   ar
    21    10    11   ar
    22    11    12   ar
    23    12    13   ar
    24    13    14   ar
    25    14    15   ar
    26     4     5    1
    27     6     5    1
    28    27    21   ar
    29     6     1    1
    30     6     2    1
    31    15     7   ar
    32    15    10   ar
    33    17    20    1
@<TRIPOS>MOLECULE
*****
 29 33 0 0 0
SMALL
GASTEIGER

@<TRIPOS>ATOM
      1 C         140.5962  138.7677  163.8492 C.3     1  UNL1        0.0181
      2 C         141.6432  138.2880  162.8881 C.3     1  UNL1        0.0036
      3 C         142.5439  137.9979  161.7241 C.3     1  UNL1        0.0227
      4 C         142.0631  138.8034  160.5538 C.3     1  UNL1        0.0870
      5 C         140.8653  139.5916  160.9942 C.3     1  UNL1        0.0227
      6 C         140.6058  139.2731  162.4369 C.3     1  UNL1        0.0036
      7 N         142.6731  138.8183  159.1835 N.ar    1  UNL1       -0.3109
      8 C         142.6148  137.7047  158.1803 C.ar    1  UNL1        0.1785
      9 N         143.3541  138.1476  156.9526 N.ar    1  UNL1       -0.2239
     10 C         143.8693  139.5350  157.1970 C.ar    1  UNL1        0.0988
     11 C         144.6673  140.4744  156.3422 C.ar    1  UNL1        0.0206
     12 C         145.0444  141.8283  156.8662 C.ar    1  UNL1        0.0016
     13 C         144.6235  142.2428  158.2450 C.ar    1  UNL1        0.0016
     14 C         143.8255  141.3034  159.0998 C.ar    1  UNL1        0.0188
     15 C         143.4484  139.9495  158.5758 C.ar    1  UNL1        0.0789
     16 C         139.9863  138.7529  165.2194 C.3     1  UNL1        0.0718
     17 N         140.6748  139.4511  166.3545 N.am    1  UNL1       -0.3025
     18 C         140.4692  140.9219  166.5656 C.2     1  UNL1        0.2458
     19 O         139.5751  141.6944  165.6416 O.2     1  UNL1       -0.2701
     20 H         141.2616  138.9441  166.9610 H       1  UNL1        0.1497
     21 C         141.1577  141.6202  167.7007 C.ar    1  UNL1        0.0534
     22 C         140.3934  142.5768  168.5670 C.ar    1  UNL1        0.0054
     23 C         141.0819  143.2750  169.7021 C.ar    1  UNL1        0.0115
     24 C         142.5348  143.0166  169.9708 C.ar    1  UNL1        0.0577
     25 CL        143.2233  143.7149  171.1059 Cl      1  UNL1       -0.0822
     26 C         143.2992  142.0600  169.1045 C.ar    1  UNL1        0.0115
     27 C         142.6107  141.3618  167.9694 C.ar    1  UNL1        0.0054
     28 C         137.8619  138.3648  166.6639 C.3     1  UNL1        0.0017
     29 C         138.6877  138.0397  165.4548 C.3     1  UNL1        0.0196
@<TRIPOS>BOND
     1    28    29    1
     2    29    16    1
     3    16    17    1
     4    17    18   am
     5    18    19    2
     6    18    21    1
     7    21    22   ar
     8    22    23   ar
     9    23    24   ar
    10    24    25    1
    11    24    26   ar
    12    26    27   ar
    13     1    16    1
    14     1     2    1
    15     2     3    1
    16     3     4    1
    17     4     7    1
    18     7     8   ar
    19     8     9   ar
    20     9    10   ar
    21    10    11   ar
    22    11    12   ar
    23    12    13   ar
    24    13    14   ar
    25    14    15   ar
    26     4     5    1
    27     6     5    1
    28    27    21   ar
    29     6     1    1
    30     6     2    1
    31    15     7   ar
    32    15    10   ar
    33    17    20    1
@<TRIPOS>MOLECULE
*****
 29 33 0 0 0
SMALL
GASTEIGER

@<TRIPOS>ATOM
      1 C         142.8846  140.1449  161.4924 C.3     1  UNL1        0.0181
      2 C         143.0235  139.7221  160.0599 C.3     1  UNL1        0.0036
      3 C         142.8856  139.1599  158.6761 C.3     1  UNL1        0.0227
      4 C         141.5913  138.4048  158.6093 C.3     1  UNL1        0.0870
      5 C         140.9291  138.5003  159.9518 C.3     1  UNL1        0.0227
      6 C         141.8143  139.3145  160.8483 C.3     1  UNL1        0.0036
      7 N         141.0535  137.6812  157.4104 N.ar    1  UNL1       -0.3109
      8 C         139.6599  137.7907  156.8664 C.ar    1  UNL1        0.1785
      9 N         139.5600  136.8983  155.6649 N.ar    1  UNL1       -0.2239
     10 C         140.8918  136.2373  155.4664 C.ar    1  UNL1        0.0988
     11 C         141.3833  135.2573  154.4426 C.ar    1  UNL1        0.0206
     12 C         142.7978  134.7613  154.4977 C.ar    1  UNL1        0.0016
     13 C         143.7208  135.2452  155.5765 C.ar    1  UNL1        0.0016
     14 C         143.2293  136.2252  156.6003 C.ar    1  UNL1        0.0188
     15 C         141.8148  136.7212  156.5452 C.ar    1  UNL1        0.0789
     16 C         143.4224  140.8684  162.6912 C.3     1  UNL1        0.0718
     17 N         142.5903  140.9827  163.9340 N.am    1  UNL1       -0.3025
     18 C         142.4610  139.8101  164.8604 C.2     1  UNL1        0.2458
     19 O         143.1639  138.5233  164.5441 O.2     1  UNL1       -0.2701
     20 H         142.1290  141.8273  164.1416 H       1  UNL1        0.1497
     21 C         141.6288  139.9244  166.1033 C.ar    1  UNL1        0.0534
     22 C         140.1356  139.8116  166.0190 C.ar    1  UNL1        0.0054
     23 C         139.3034  139.9258  167.2617 C.ar    1  UNL1        0.0115
     24 C         139.9646  140.1529  168.5888 C.ar    1  UNL1        0.0577
     25 CL        139.1325  140.2672  169.8316 Cl      1  UNL1       -0.0822
     26 C         141.4580  140.2657  168.6732 C.ar    1  UNL1        0.0115
     27 C         142.2902  140.1515  167.4304 C.ar    1  UNL1        0.0054
     28 C         145.6910  141.3901  163.8450 C.3     1  UNL1        0.0017
     29 C         144.7924  141.4778  162.6473 C.3     1  UNL1        0.0196
@<TRIPOS>BOND
     1    28    29    1
     2    29    16    1
     3    16    17    1
     4    17    18   am
     5    18    19    2
     6    18    21    1
     7    21    22   ar
     8    22    23   ar
     9    23    24   ar
    10    24    25    1
    11    24    26   ar
    12    26    27   ar
    13     1    16    1
    14     1     2    1
    15     2     3    1
    16     3     4    1
    17     4     7    1
    18     7     8   ar
    19     8     9   ar
    20     9    10   ar
    21    10    11   ar
    22    11    12   ar
    23    12    13   ar
    24    13    14   ar
    25    14    15   ar
    26     4     5    1
    27     6     5    1
    28    27    21   ar
    29     6     1    1
    30     6     2    1
    31    15     7   ar
    32    15    10   ar
    33    17    20    1
@<TRIPOS>MOLECULE
*****
 29 33 0 0 0
SMALL
GASTEIGER

@<TRIPOS>ATOM
      1 C         137.3104  142.6370  156.3501 C.3     1  UNL1        0.0181
      2 C         137.7842  142.4722  157.7638 C.3     1  UNL1        0.0036
      3 C         138.4739  142.5196  159.0950 C.3     1  UNL1        0.0227
      4 C         139.6055  143.4993  158.9963 C.3     1  UNL1        0.0870
      5 C         139.6152  144.0574  157.6040 C.3     1  UNL1        0.0227
      6 C         138.4896  143.4227  156.8423 C.3     1  UNL1        0.0036
      7 N         140.5598  143.8579  160.0966 N.ar    1  UNL1       -0.3109
      8 C         142.0458  144.0101  159.9600 C.ar    1  UNL1        0.1785
      9 N         142.6000  144.3735  161.3057 N.ar    1  UNL1       -0.2239
     10 C         141.4566  144.4459  162.2739 C.ar    1  UNL1        0.0988
     11 C         141.4007  144.7608  163.7393 C.ar    1  UNL1        0.0206
     12 C         140.0838  144.7570  164.4575 C.ar    1  UNL1        0.0016
     13 C         138.8229  144.4383  163.7102 C.ar    1  UNL1        0.0016
     14 C         138.8788  144.1234  162.2447 C.ar    1  UNL1        0.0188
     15 C         140.1956  144.1272  161.5266 C.ar    1  UNL1        0.0789
     16 C         136.3562  142.2784  155.2498 C.3     1  UNL1        0.0718
     17 N         134.9413  141.9026  155.5769 N.am    1  UNL1       -0.3025
     18 C         134.5820  140.4651  155.8103 C.2     1  UNL1        0.2458
     19 O         135.6374  139.4034  155.7166 O.2     1  UNL1       -0.2701
     20 H         134.2486  142.5994  155.6384 H       1  UNL1        0.1497
     21 C         133.1670  140.0893  156.1374 C.ar    1  UNL1        0.0534
     22 C         132.0416  141.0079  155.7641 C.ar    1  UNL1        0.0054
     23 C         130.6268  140.6321  156.0912 C.ar    1  UNL1        0.0115
     24 C         130.3374  139.3377  156.7916 C.ar    1  UNL1        0.0577
     25 CL        128.9226  138.9620  157.1187 Cl      1  UNL1       -0.0822
     26 C         131.4629  138.4191  157.1650 C.ar    1  UNL1        0.0115
     27 C         132.8777  138.7948  156.8380 C.ar    1  UNL1        0.0054
     28 C         136.1049  141.4668  152.7946 C.3     1  UNL1        0.0017
     29 C         136.8166  142.2956  153.8223 C.3     1  UNL1        0.0196
@<TRIPOS>BOND
     1    28    29    1
     2    29    16    1
     3    16    17    1
     4    17    18   am
     5    18    19    2
     6    18    21    1
     7    21    22   ar
     8    22    23   ar
     9    23    24   ar
    10    24    25    1
    11    24    26   ar
    12    26    27   ar
    13     1    16    1
    14     1     2    1
    15     2     3    1
    16     3     4    1
    17     4     7    1
    18     7     8   ar
    19     8     9   ar
    20     9    10   ar
    21    10    11   ar
    22    11    12   ar
    23    12    13   ar
    24    13    14   ar
    25    14    15   ar
    26     4     5    1
    27     6     5    1
    28    27    21   ar
    29     6     1    1
    30     6     2    1
    31    15     7   ar
    32    15    10   ar
    33    17    20    1
@<TRIPOS>MOLECULE
*****
 29 33 0 0 0
SMALL
GASTEIGER

@<TRIPOS>ATOM
      1 C         142.6329  143.4386  162.1888 C.3     1  UNL1        0.0181
      2 C         143.8526  142.9180  161.4877 C.3     1  UNL1        0.0036
      3 C         144.8889  142.4052  160.5321 C.3     1  UNL1        0.0227
      4 C         144.2675  142.3338  159.1688 C.3     1  UNL1        0.0870
      5 C         142.8471  142.8024  159.2817 C.3     1  UNL1        0.0227
      6 C         142.5906  143.1635  160.7148 C.3     1  UNL1        0.0036
      7 N         144.9472  141.8745  157.9129 N.ar    1  UNL1       -0.3109
      8 C         146.1396  142.5182  157.2697 C.ar    1  UNL1        0.1785
      9 N         146.4831  141.7323  156.0391 N.ar    1  UNL1       -0.2239
     10 C         145.5030  140.6029  155.9218 C.ar    1  UNL1        0.0988
     11 C         145.3522  139.5058  154.9101 C.ar    1  UNL1        0.0206
     12 C         144.2523  138.4966  155.0565 C.ar    1  UNL1        0.0016
     13 C         143.3030  138.5844  156.2146 C.ar    1  UNL1        0.0016
     14 C         143.4538  139.6815  157.2263 C.ar    1  UNL1        0.0188
     15 C         144.5537  140.6907  157.0799 C.ar    1  UNL1        0.0789
     16 C         141.9533  143.8979  163.4445 C.3     1  UNL1        0.0718
     17 N         141.8350  142.9689  164.6163 N.am    1  UNL1       -0.3025
     18 C         143.0296  142.6978  165.4820 C.2     1  UNL1        0.2458
     19 O         144.3424  143.3558  165.1761 O.2     1  UNL1       -0.2701
     20 H         140.9734  142.5370  164.8171 H       1  UNL1        0.1497
     21 C         142.9114  141.7688  166.6538 C.ar    1  UNL1        0.0534
     22 C         143.0445  142.3014  168.0496 C.ar    1  UNL1        0.0054
     23 C         142.9263  141.3724  169.2214 C.ar    1  UNL1        0.0115
     24 C         142.6749  139.9107  168.9972 C.ar    1  UNL1        0.0577
     25 CL        142.5567  138.9817  170.1689 Cl      1  UNL1       -0.0822
     26 C         142.5418  139.3780  167.6013 C.ar    1  UNL1        0.0115
     27 C         142.6600  140.3070  166.4296 C.ar    1  UNL1        0.0054
     28 C         140.4735  145.7903  162.4551 C.3     1  UNL1        0.0017
     29 C         141.3917  145.2863  163.5287 C.3     1  UNL1        0.0196
@<TRIPOS>BOND
     1    28    29    1
     2    29    16    1
     3    16    17    1
     4    17    18   am
     5    18    19    2
     6    18    21    1
     7    21    22   ar
     8    22    23   ar
     9    23    24   ar
    10    24    25    1
    11    24    26   ar
    12    26    27   ar
    13     1    16    1
    14     1     2    1
    15     2     3    1
    16     3     4    1
    17     4     7    1
    18     7     8   ar
    19     8     9   ar
    20     9    10   ar
    21    10    11   ar
    22    11    12   ar
    23    12    13   ar
    24    13    14   ar
    25    14    15   ar
    26     4     5    1
    27     6     5    1
    28    27    21   ar
    29     6     1    1
    30     6     2    1
    31    15     7   ar
    32    15    10   ar
    33    17    20    1
@<TRIPOS>MOLECULE
*****
 29 33 0 0 0
SMALL
GASTEIGER

@<TRIPOS>ATOM
      1 C         142.0674  138.8699  158.3878 C.3     1  UNL1        0.0181
      2 C         140.8837  138.7907  159.3058 C.3     1  UNL1        0.0036
      3 C         139.8625  138.9162  160.3974 C.3     1  UNL1        0.0227
      4 C         140.3920  139.8782  161.4192 C.3     1  UNL1        0.0870
      5 C         141.7404  140.3474  160.9592 C.3     1  UNL1        0.0227
      6 C         142.0443  139.6753  159.6531 C.3     1  UNL1        0.0036
      7 N         139.6953  140.2976  162.6797 N.ar    1  UNL1       -0.3109
      8 C         139.3151  141.6999  163.0522 C.ar    1  UNL1        0.1785
      9 N         138.6414  141.6571  164.3918 N.ar    1  UNL1       -0.2239
     10 C         138.6053  140.2284  164.8471 C.ar    1  UNL1        0.0988
     11 C         138.0635  139.5840  166.0885 C.ar    1  UNL1        0.0206
     12 C         138.1731  138.0993  166.2718 C.ar    1  UNL1        0.0016
     13 C         138.8245  137.2590  165.2137 C.ar    1  UNL1        0.0016
     14 C         139.3663  137.9034  163.9723 C.ar    1  UNL1        0.0188
     15 C         139.2567  139.3881  163.7890 C.ar    1  UNL1        0.0789
     16 C         142.7640  138.4506  157.1274 C.3     1  UNL1        0.0718
     17 N         143.3486  137.0737  157.0160 N.am    1  UNL1       -0.3025
     18 C         142.5151  135.9459  156.4837 C.2     1  UNL1        0.2458
     19 O         141.0971  136.1948  156.0629 O.2     1  UNL1       -0.2701
     20 H         144.2793  136.9103  157.2921 H       1  UNL1        0.1497
     21 C         143.0998  134.5689  156.3723 C.ar    1  UNL1        0.0534
     22 C         143.8888  133.9947  157.5114 C.ar    1  UNL1        0.0054
     23 C         144.4735  132.6178  157.4000 C.ar    1  UNL1        0.0115
     24 C         144.2690  131.8152  156.1494 C.ar    1  UNL1        0.0577
     25 CL        144.8537  130.4383  156.0380 Cl      1  UNL1       -0.0822
     26 C         143.4800  132.3894  155.0102 C.ar    1  UNL1        0.0115
     27 C         142.8953  133.7662  155.1216 C.ar    1  UNL1        0.0054
     28 C         142.5753  140.8634  156.1824 C.3     1  UNL1        0.0017
     29 C         142.8761  139.4082  155.9782 C.3     1  UNL1        0.0196
@<TRIPOS>BOND
     1    28    29    1
     2    29    16    1
     3    16    17    1
     4    17    18   am
     5    18    19    2
     6    18    21    1
     7    21    22   ar
     8    22    23   ar
     9    23    24   ar
    10    24    25    1
    11    24    26   ar
    12    26    27   ar
    13     1    16    1
    14     1     2    1
    15     2     3    1
    16     3     4    1
    17     4     7    1
    18     7     8   ar
    19     8     9   ar
    20     9    10   ar
    21    10    11   ar
    22    11    12   ar
    23    12    13   ar
    24    13    14   ar
    25    14    15   ar
    26     4     5    1
    27     6     5    1
    28    27    21   ar
    29     6     1    1
    30     6     2    1
    31    15     7   ar
    32    15    10   ar
    33    17    20    1
@<TRIPOS>MOLECULE
*****
 29 33 0 0 0
SMALL
GASTEIGER

@<TRIPOS>ATOM
      1 C         141.8831  138.0068  157.6791 C.3     1  UNL1        0.0181
      2 C         142.7486  136.9004  157.1527 C.3     1  UNL1        0.0036
      3 C         143.3577  135.7157  156.4633 C.3     1  UNL1        0.0227
      4 C         142.3134  135.1094  155.5736 C.3     1  UNL1        0.0870
      5 C         141.0586  135.9194  155.7131 C.3     1  UNL1        0.0227
      6 C         141.3276  137.0263  156.6890 C.3     1  UNL1        0.0036
      7 N         142.4923  133.9046  154.6981 N.ar    1  UNL1       -0.3109
      8 C         141.8732  133.6962  153.3478 C.ar    1  UNL1        0.1785
      9 N         142.3200  132.3595  152.8344 N.ar    1  UNL1       -0.2239
     10 C         143.2152  131.7418  153.8673 C.ar    1  UNL1        0.0988
     11 C         143.9471  130.4332  153.9079 C.ar    1  UNL1        0.0206
     12 C         144.7856  130.0795  155.1003 C.ar    1  UNL1        0.0016
     13 C         144.8921  131.0344  156.2521 C.ar    1  UNL1        0.0016
     14 C         144.1601  132.3430  156.2116 C.ar    1  UNL1        0.0188
     15 C         143.3217  132.6967  155.0192 C.ar    1  UNL1        0.0789
     16 C         141.7041  139.2115  158.5545 C.3     1  UNL1        0.0718
     17 N         141.7745  139.0717  160.0463 N.am    1  UNL1       -0.3025
     18 C         143.1073  139.0065  160.7315 C.2     1  UNL1        0.2458
     19 O         144.3697  139.0811  159.9248 O.2     1  UNL1       -0.2701
     20 H         140.9460  139.0227  160.5758 H       1  UNL1        0.1497
     21 C         143.1777  138.8667  162.2234 C.ar    1  UNL1        0.0534
     22 C         144.3071  139.4966  162.9832 C.ar    1  UNL1        0.0054
     23 C         144.3774  139.3568  164.4750 C.ar    1  UNL1        0.0115
     24 C         143.3183  138.5870  165.2069 C.ar    1  UNL1        0.0577
     25 CL        143.3887  138.4472  166.6987 Cl      1  UNL1       -0.0822
     26 C         142.1889  137.9570  164.4470 C.ar    1  UNL1        0.0115
     27 C         142.1185  138.0968  162.9552 C.ar    1  UNL1        0.0054
     28 C         141.7448  140.7800  156.4837 C.3     1  UNL1        0.0017
     29 C         141.4548  140.5562  157.9382 C.3     1  UNL1        0.0196
@<TRIPOS>BOND
     1    28    29    1
     2    29    16    1
     3    16    17    1
     4    17    18   am
     5    18    19    2
     6    18    21    1
     7    21    22   ar
     8    22    23   ar
     9    23    24   ar
    10    24    25    1
    11    24    26   ar
    12    26    27   ar
    13     1    16    1
    14     1     2    1
    15     2     3    1
    16     3     4    1
    17     4     7    1
    18     7     8   ar
    19     8     9   ar
    20     9    10   ar
    21    10    11   ar
    22    11    12   ar
    23    12    13   ar
    24    13    14   ar
    25    14    15   ar
    26     4     5    1
    27     6     5    1
    28    27    21   ar
    29     6     1    1
    30     6     2    1
    31    15     7   ar
    32    15    10   ar
    33    17    20    1
