@<TRIPOS>MOLECULE
*****
 24 26 0 0 0
SMALL
GASTEIGER

@<TRIPOS>ATOM
      1 C         138.5052  138.9631  163.5767 C.ar    1  UNL1        0.1889
      2 C         139.3935  138.1511  164.4720 C.ar    1  UNL1        0.1403
      3 N         139.8083  138.6924  165.8080 N.ar    1  UNL1       -0.2204
      4 C         139.3350  140.0458  166.2487 C.ar    1  UNL1        0.1816
      5 N         138.4467  140.8578  165.3534 N.ar    1  UNL1       -0.2074
      6 C         138.0318  140.3165  164.0175 C.ar    1  UNL1        0.1663
      7 C         139.7498  140.5871  167.5847 C.ar    1  UNL1        0.1170
      8 C         140.4610  141.9049  167.6720 C.ar    1  UNL1        0.0223
      9 C         140.8759  142.4462  169.0080 C.ar    1  UNL1        0.0032
     10 C         140.5796  141.6697  170.2566 C.ar    1  UNL1        0.0207
     11 C         139.8684  140.3520  170.1694 C.ar    1  UNL1        0.0989
     12 N         139.4536  139.8106  168.8334 N.ar    1  UNL1       -0.2407
     13 C         139.0821  138.3558  161.1174 C.3     1  UNL1        0.2527
     14 O         138.0903  138.4218  162.2408 O.3     1  UNL1       -0.4670
     15 N         137.1435  141.1286  163.1222 N.pl3   1  UNL1       -0.3119
     16 H         136.1729  140.9641  163.1112 H       1  UNL1        0.1486
     17 C         137.7341  142.1913  162.2436 C.3     1  UNL1        0.1177
     18 C         138.8385  143.0643  162.7615 C.ar    1  UNL1        0.0249
     19 C         140.2063  142.9847  162.1509 C.ar    1  UNL1       -0.0004
     20 C         141.3108  143.8577  162.6688 C.ar    1  UNL1       -0.0001
     21 C         141.0474  144.8101  163.7972 C.ar    1  UNL1        0.0023
     22 C         139.6796  144.8897  164.4078 C.ar    1  UNL1        0.0294
     23 C         138.5752  144.0168  163.8899 C.ar    1  UNL1        0.1377
     24 F         137.2074  144.0964  164.5005 F       1  UNL1       -0.2044
@<TRIPOS>BOND
     1    13    14    1
     2    14     1    1
     3     1     2   ar
     4     2     3   ar
     5     3     4   ar
     6     4     7    1
     7     7     8   ar
     8     8     9   ar
     9     9    10   ar
    10    10    11   ar
    11    11    12   ar
    12     4     5   ar
    13     5     6   ar
    14     6    15    1
    15    15    17    1
    16    17    18    1
    17    18    19   ar
    18    19    20   ar
    19    20    21   ar
    20    21    22   ar
    21    22    23   ar
    22    23    24    1
    23     6     1   ar
    24    23    18   ar
    25    12     7   ar
    26    15    16    1
@<TRIPOS>MOLECULE
*****
 24 26 0 0 0
SMALL
GASTEIGER

@<TRIPOS>ATOM
      1 C         143.4087  138.6512  163.0814 C.ar    1  UNL1        0.1889
      2 C         142.1608  137.9835  163.5783 C.ar    1  UNL1        0.1403
      3 N         141.6761  138.2432  164.9739 N.ar    1  UNL1       -0.2204
      4 C         142.4392  139.1706  165.8725 C.ar    1  UNL1        0.1816
      5 N         143.6871  139.8383  165.3755 N.ar    1  UNL1       -0.2074
      6 C         144.1718  139.5786  163.9800 C.ar    1  UNL1        0.1663
      7 C         141.9545  139.4303  167.2681 C.ar    1  UNL1        0.1170
      8 C         140.5692  139.9589  167.4947 C.ar    1  UNL1        0.0223
      9 C         140.0845  140.2186  168.8902 C.ar    1  UNL1        0.0032
     10 C         140.9851  139.9497  170.0592 C.ar    1  UNL1        0.0207
     11 C         142.3704  139.4210  169.8326 C.ar    1  UNL1        0.0989
     12 N         142.8551  139.1613  168.4370 N.ar    1  UNL1       -0.2407
     13 C         143.4862  139.3053  160.5682 C.3     1  UNL1        0.2527
     14 O         143.8934  138.3915  161.6858 O.3     1  UNL1       -0.4670
     15 N         145.4197  140.2463  163.4830 N.pl3   1  UNL1       -0.3119
     16 H         146.0717  139.7367  162.9496 H       1  UNL1        0.1486
     17 C         145.6743  141.6904  163.7989 C.3     1  UNL1        0.1177
     18 C         144.6507  142.7276  163.4434 C.ar    1  UNL1        0.0249
     19 C         144.0197  142.7231  162.0826 C.ar    1  UNL1       -0.0004
     20 C         142.9960  143.7604  161.7272 C.ar    1  UNL1       -0.0001
     21 C         142.6035  144.8021  162.7325 C.ar    1  UNL1        0.0023
     22 C         143.2345  144.8066  164.0933 C.ar    1  UNL1        0.0294
     23 C         144.2581  143.7694  164.4488 C.ar    1  UNL1        0.1377
     24 F         144.8891  143.7739  165.8096 F       1  UNL1       -0.2044
@<TRIPOS>BOND
     1    13    14    1
     2    14     1    1
     3     1     2   ar
     4     2     3   ar
     5     3     4   ar
     6     4     7    1
     7     7     8   ar
     8     8     9   ar
     9     9    10   ar
    10    10    11   ar
    11    11    12   ar
    12     4     5   ar
    13     5     6   ar
    14     6    15    1
    15    15    17    1
    16    17    18    1
    17    18    19   ar
    18    19    20   ar
    19    20    21   ar
    20    21    22   ar
    21    22    23   ar
    22    23    24    1
    23     6     1   ar
    24    23    18   ar
    25    12     7   ar
    26    15    16    1
@<TRIPOS>MOLECULE
*****
 24 26 0 0 0
SMALL
GASTEIGER

@<TRIPOS>ATOM
      1 C         140.0595  144.5673  162.0989 C.ar    1  UNL1        0.1889
      2 C         139.0367  143.4911  161.8854 C.ar    1  UNL1        0.1403
      3 N         138.7924  142.4662  162.9531 N.ar    1  UNL1       -0.2204
      4 C         139.5709  142.5174  164.2342 C.ar    1  UNL1        0.1816
      5 N         140.5937  143.5936  164.4477 N.ar    1  UNL1       -0.2074
      6 C         140.8380  144.6186  163.3801 C.ar    1  UNL1        0.1663
      7 C         139.3265  141.4925  165.3018 C.ar    1  UNL1        0.1170
      8 C         138.3694  140.3646  165.0537 C.ar    1  UNL1        0.0223
      9 C         138.1251  139.3396  166.1213 C.ar    1  UNL1        0.0032
     10 C         138.8379  139.4427  167.4371 C.ar    1  UNL1        0.0207
     11 C         139.7950  140.5706  167.6852 C.ar    1  UNL1        0.0989
     12 N         140.0393  141.5955  166.6176 N.ar    1  UNL1       -0.2407
     13 C         141.1102  145.2341  159.8183 C.3     1  UNL1        0.2527
     14 O         140.3039  145.5922  161.0313 O.3     1  UNL1       -0.4670
     15 N         141.8609  145.6948  163.5936 N.pl3   1  UNL1       -0.3119
     16 H         141.6481  146.6285  163.3651 H       1  UNL1        0.1486
     17 C         143.2079  145.3484  164.1554 C.3     1  UNL1        0.1177
     18 C         143.9289  144.1242  163.6743 C.ar    1  UNL1        0.0249
     19 C         144.0540  143.8569  162.2036 C.ar    1  UNL1       -0.0004
     20 C         144.7751  142.6326  161.7226 C.ar    1  UNL1       -0.0001
     21 C         145.3709  141.6758  162.7122 C.ar    1  UNL1        0.0023
     22 C         145.2458  141.9432  164.1829 C.ar    1  UNL1        0.0294
     23 C         144.5248  143.1673  164.6639 C.ar    1  UNL1        0.1377
     24 F         144.3997  143.4347  166.1346 F       1  UNL1       -0.2044
@<TRIPOS>BOND
     1    13    14    1
     2    14     1    1
     3     1     2   ar
     4     2     3   ar
     5     3     4   ar
     6     4     7    1
     7     7     8   ar
     8     8     9   ar
     9     9    10   ar
    10    10    11   ar
    11    11    12   ar
    12     4     5   ar
    13     5     6   ar
    14     6    15    1
    15    15    17    1
    16    17    18    1
    17    18    19   ar
    18    19    20   ar
    19    20    21   ar
    20    21    22   ar
    21    22    23   ar
    22    23    24    1
    23     6     1   ar
    24    23    18   ar
    25    12     7   ar
    26    15    16    1
@<TRIPOS>MOLECULE
*****
 24 26 0 0 0
SMALL
GASTEIGER

@<TRIPOS>ATOM
      1 C         139.0116  144.2831  162.4527 C.ar    1  UNL1        0.1889
      2 C         138.1190  143.2312  161.8640 C.ar    1  UNL1        0.1403
      3 N         138.0831  141.8566  162.4633 N.ar    1  UNL1       -0.2204
      4 C         138.9400  141.5339  163.6514 C.ar    1  UNL1        0.1816
      5 N         139.8327  142.5858  164.2401 N.ar    1  UNL1       -0.2074
      6 C         139.8685  143.9604  163.6408 C.ar    1  UNL1        0.1663
      7 C         138.9042  140.1593  164.2508 C.ar    1  UNL1        0.1170
      8 C         138.1960  139.9269  165.5525 C.ar    1  UNL1        0.0223
      9 C         138.1602  138.5524  166.1518 C.ar    1  UNL1        0.0032
     10 C         138.8325  137.4102  165.4495 C.ar    1  UNL1        0.0207
     11 C         139.5407  137.6426  164.1478 C.ar    1  UNL1        0.0989
     12 N         139.5765  139.0172  163.5484 N.ar    1  UNL1       -0.2407
     13 C         140.0005  145.9642  160.7364 C.3     1  UNL1        0.2527
     14 O         139.0475  145.6577  161.8533 O.3     1  UNL1       -0.4670
     15 N         140.7613  145.0123  164.2296 N.pl3   1  UNL1       -0.3119
     16 H         140.4782  145.5043  165.0340 H       1  UNL1        0.1486
     17 C         142.0853  145.3145  163.5928 C.3     1  UNL1        0.1177
     18 C         143.1306  144.2435  163.4912 C.ar    1  UNL1        0.0249
     19 C         143.8445  143.7730  164.7236 C.ar    1  UNL1       -0.0004
     20 C         144.8899  142.7020  164.6220 C.ar    1  UNL1       -0.0001
     21 C         145.2212  142.1015  163.2880 C.ar    1  UNL1        0.0023
     22 C         144.5072  142.5720  162.0555 C.ar    1  UNL1        0.0294
     23 C         143.4619  143.6430  162.1571 C.ar    1  UNL1        0.1377
     24 F         142.7480  144.1135  160.9247 F       1  UNL1       -0.2044
@<TRIPOS>BOND
     1    13    14    1
     2    14     1    1
     3     1     2   ar
     4     2     3   ar
     5     3     4   ar
     6     4     7    1
     7     7     8   ar
     8     8     9   ar
     9     9    10   ar
    10    10    11   ar
    11    11    12   ar
    12     4     5   ar
    13     5     6   ar
    14     6    15    1
    15    15    17    1
    16    17    18    1
    17    18    19   ar
    18    19    20   ar
    19    20    21   ar
    20    21    22   ar
    21    22    23   ar
    22    23    24    1
    23     6     1   ar
    24    23    18   ar
    25    12     7   ar
    26    15    16    1
@<TRIPOS>MOLECULE
*****
 24 26 0 0 0
SMALL
GASTEIGER

@<TRIPOS>ATOM
      1 C         142.9329  143.5951  162.3471 C.ar    1  UNL1        0.1889
      2 C         143.5942  142.2741  162.6067 C.ar    1  UNL1        0.1403
      3 N         143.5870  141.6904  163.9885 N.ar    1  UNL1       -0.2204
      4 C         142.9185  142.4278  165.1106 C.ar    1  UNL1        0.1816
      5 N         142.2571  143.7489  164.8510 N.ar    1  UNL1       -0.2074
      6 C         142.2643  144.3325  163.4692 C.ar    1  UNL1        0.1663
      7 C         142.9113  141.8442  166.4924 C.ar    1  UNL1        0.1170
      8 C         142.4919  140.4195  166.7026 C.ar    1  UNL1        0.0223
      9 C         142.4847  139.8358  168.0844 C.ar    1  UNL1        0.0032
     10 C         142.8969  140.6769  169.2560 C.ar    1  UNL1        0.0207
     11 C         143.3163  142.1016  169.0458 C.ar    1  UNL1        0.0989
     12 N         143.3235  142.6853  167.6640 N.ar    1  UNL1       -0.2407
     13 C         143.0546  143.2781  159.7713 C.3     1  UNL1        0.2527
     14 O         142.9401  144.1788  160.9653 O.3     1  UNL1       -0.4670
     15 N         141.6030  145.6536  163.2096 N.pl3   1  UNL1       -0.3119
     16 H         142.0847  146.4910  163.3993 H       1  UNL1        0.1486
     17 C         140.2076  145.6988  162.6611 C.3     1  UNL1        0.1177
     18 C         139.2776  144.5426  162.8807 C.ar    1  UNL1        0.0249
     19 C         139.0040  143.5778  161.7652 C.ar    1  UNL1       -0.0004
     20 C         138.0740  142.4216  161.9848 C.ar    1  UNL1       -0.0001
     21 C         137.4175  142.2302  163.3199 C.ar    1  UNL1        0.0023
     22 C         137.6911  143.1950  164.4354 C.ar    1  UNL1        0.0294
     23 C         138.6210  144.3512  164.2158 C.ar    1  UNL1        0.1377
     24 F         138.8946  145.3160  165.3313 F       1  UNL1       -0.2044
@<TRIPOS>BOND
     1    13    14    1
     2    14     1    1
     3     1     2   ar
     4     2     3   ar
     5     3     4   ar
     6     4     7    1
     7     7     8   ar
     8     8     9   ar
     9     9    10   ar
    10    10    11   ar
    11    11    12   ar
    12     4     5   ar
    13     5     6   ar
    14     6    15    1
    15    15    17    1
    16    17    18    1
    17    18    19   ar
    18    19    20   ar
    19    20    21   ar
    20    21    22   ar
    21    22    23   ar
    22    23    24    1
    23     6     1   ar
    24    23    18   ar
    25    12     7   ar
    26    15    16    1
@<TRIPOS>MOLECULE
*****
 24 26 0 0 0
SMALL
GASTEIGER

@<TRIPOS>ATOM
      1 C         144.5982  141.5167  163.5745 C.ar    1  UNL1        0.1889
      2 C         144.4964  142.9262  164.0772 C.ar    1  UNL1        0.1403
      3 N         143.8394  143.2064  165.3963 N.ar    1  UNL1       -0.2204
      4 C         143.2842  142.0771  166.2125 C.ar    1  UNL1        0.1816
      5 N         143.3860  140.6676  165.7098 N.ar    1  UNL1       -0.2074
      6 C         144.0430  140.3874  164.3907 C.ar    1  UNL1        0.1663
      7 C         142.6273  142.3573  167.5316 C.ar    1  UNL1        0.1170
      8 C         141.1328  142.4504  167.6204 C.ar    1  UNL1        0.0223
      9 C         140.4759  142.7305  168.9394 C.ar    1  UNL1        0.0032
     10 C         141.3133  142.9177  170.1697 C.ar    1  UNL1        0.0207
     11 C         142.8078  142.8246  170.0809 C.ar    1  UNL1        0.0989
     12 N         143.4647  142.5444  168.7618 N.ar    1  UNL1       -0.2407
     13 C         144.5262  141.5286  160.9774 C.3     1  UNL1        0.2527
     14 O         145.2551  141.2365  162.2554 O.3     1  UNL1       -0.4670
     15 N         144.1447  138.9778  163.8879 N.pl3   1  UNL1       -0.3119
     16 H         144.8074  138.3627  164.2777 H       1  UNL1        0.1486
     17 C         143.2369  138.5053  162.7914 C.3     1  UNL1        0.1177
     18 C         141.7985  138.2002  163.0878 C.ar    1  UNL1        0.0249
     19 C         141.3724  137.8849  164.4910 C.ar    1  UNL1       -0.0004
     20 C         139.9339  137.5799  164.7874 C.ar    1  UNL1       -0.0001
     21 C         138.9216  137.5901  163.6806 C.ar    1  UNL1        0.0023
     22 C         139.3477  137.9053  162.2773 C.ar    1  UNL1        0.0294
     23 C         140.7861  138.2104  161.9809 C.ar    1  UNL1        0.1377
     24 F         141.2122  138.5256  160.5777 F       1  UNL1       -0.2044
@<TRIPOS>BOND
     1    13    14    1
     2    14     1    1
     3     1     2   ar
     4     2     3   ar
     5     3     4   ar
     6     4     7    1
     7     7     8   ar
     8     8     9   ar
     9     9    10   ar
    10    10    11   ar
    11    11    12   ar
    12     4     5   ar
    13     5     6   ar
    14     6    15    1
    15    15    17    1
    16    17    18    1
    17    18    19   ar
    18    19    20   ar
    19    20    21   ar
    20    21    22   ar
    21    22    23   ar
    22    23    24    1
    23     6     1   ar
    24    23    18   ar
    25    12     7   ar
    26    15    16    1
@<TRIPOS>MOLECULE
*****
 24 26 0 0 0
SMALL
GASTEIGER

@<TRIPOS>ATOM
      1 C         139.1852  138.5009  164.0617 C.ar    1  UNL1        0.1889
      2 C         138.5188  138.0435  165.3252 C.ar    1  UNL1        0.1403
      3 N         138.7850  138.7606  166.6155 N.ar    1  UNL1       -0.2204
      4 C         139.7176  139.9351  166.6423 C.ar    1  UNL1        0.1816
      5 N         140.3840  140.3925  165.3788 N.ar    1  UNL1       -0.2074
      6 C         140.1178  139.6754  164.0885 C.ar    1  UNL1        0.1663
      7 C         139.9837  140.6522  167.9327 C.ar    1  UNL1        0.1170
      8 C         140.3289  142.1118  167.9221 C.ar    1  UNL1        0.0223
      9 C         140.5951  142.8289  169.2125 C.ar    1  UNL1        0.0032
     10 C         140.5161  142.0863  170.5133 C.ar    1  UNL1        0.0207
     11 C         140.1708  140.6267  170.5238 C.ar    1  UNL1        0.0989
     12 N         139.9047  139.9096  169.2335 N.ar    1  UNL1       -0.2407
     13 C         137.8532  138.2834  161.8417 C.3     1  UNL1        0.2527
     14 O         138.9191  137.7839  162.7713 O.3     1  UNL1       -0.4670
     15 N         140.7843  140.1329  162.8249 N.pl3   1  UNL1       -0.3119
     16 H         141.5087  139.5968  162.4285 H       1  UNL1        0.1486
     17 C         140.3471  141.4072  162.1653 C.3     1  UNL1        0.1177
     18 C         139.8328  142.5443  162.9974 C.ar    1  UNL1        0.0249
     19 C         140.7952  143.4997  163.6386 C.ar    1  UNL1       -0.0004
     20 C         140.2808  144.6368  164.4708 C.ar    1  UNL1       -0.0001
     21 C         138.8042  144.8186  164.6617 C.ar    1  UNL1        0.0023
     22 C         137.8419  143.8632  164.0204 C.ar    1  UNL1        0.0294
     23 C         138.3561  142.7261  163.1883 C.ar    1  UNL1        0.1377
     24 F         137.3938  141.7707  162.5471 F       1  UNL1       -0.2044
@<TRIPOS>BOND
     1    13    14    1
     2    14     1    1
     3     1     2   ar
     4     2     3   ar
     5     3     4   ar
     6     4     7    1
     7     7     8   ar
     8     8     9   ar
     9     9    10   ar
    10    10    11   ar
    11    11    12   ar
    12     4     5   ar
    13     5     6   ar
    14     6    15    1
    15    15    17    1
    16    17    18    1
    17    18    19   ar
    18    19    20   ar
    19    20    21   ar
    20    21    22   ar
    21    22    23   ar
    22    23    24    1
    23     6     1   ar
    24    23    18   ar
    25    12     7   ar
    26    15    16    1
@<TRIPOS>MOLECULE
*****
 24 26 0 0 0
SMALL
GASTEIGER

@<TRIPOS>ATOM
      1 C         142.5997  138.3363  163.5541 C.ar    1  UNL1        0.1889
      2 C         143.7893  139.1685  163.9310 C.ar    1  UNL1        0.1403
      3 N         143.8436  139.8345  165.2739 N.ar    1  UNL1       -0.2204
      4 C         142.7083  139.6682  166.2400 C.ar    1  UNL1        0.1816
      5 N         141.5187  138.8359  165.8631 N.ar    1  UNL1       -0.2074
      6 C         141.4644  138.1700  164.5202 C.ar    1  UNL1        0.1663
      7 C         142.7626  140.3342  167.5829 C.ar    1  UNL1        0.1170
      8 C         142.7832  141.8311  167.6775 C.ar    1  UNL1        0.0223
      9 C         142.8375  142.4970  169.0205 C.ar    1  UNL1        0.0032
     10 C         142.8712  141.6662  170.2688 C.ar    1  UNL1        0.0207
     11 C         142.8507  140.1694  170.1743 C.ar    1  UNL1        0.0989
     12 N         142.7964  139.5034  168.8313 N.ar    1  UNL1       -0.2407
     13 C         141.8269  138.3334  161.0736 C.3     1  UNL1        0.2527
     14 O         142.5454  137.6703  162.2112 O.3     1  UNL1       -0.4670
     15 N         140.2747  137.3376  164.1433 N.pl3   1  UNL1       -0.3119
     16 H         140.4028  136.4686  163.6989 H       1  UNL1        0.1486
     17 C         138.8898  137.8295  164.4438 C.3     1  UNL1        0.1177
     18 C         138.4456  139.1718  163.9430 C.ar    1  UNL1        0.0249
     19 C         138.3102  140.3211  164.8974 C.ar    1  UNL1       -0.0004
     20 C         137.8659  141.6634  164.3966 C.ar    1  UNL1       -0.0001
     21 C         137.5570  141.8564  162.9415 C.ar    1  UNL1        0.0023
     22 C         137.6924  140.7071  161.9871 C.ar    1  UNL1        0.0294
     23 C         138.1367  139.3648  162.4879 C.ar    1  UNL1        0.1377
     24 F         138.2721  138.2155  161.5335 F       1  UNL1       -0.2044
@<TRIPOS>BOND
     1    13    14    1
     2    14     1    1
     3     1     2   ar
     4     2     3   ar
     5     3     4   ar
     6     4     7    1
     7     7     8   ar
     8     8     9   ar
     9     9    10   ar
    10    10    11   ar
    11    11    12   ar
    12     4     5   ar
    13     5     6   ar
    14     6    15    1
    15    15    17    1
    16    17    18    1
    17    18    19   ar
    18    19    20   ar
    19    20    21   ar
    20    21    22   ar
    21    22    23   ar
    22    23    24    1
    23     6     1   ar
    24    23    18   ar
    25    12     7   ar
    26    15    16    1
@<TRIPOS>MOLECULE
*****
 24 26 0 0 0
SMALL
GASTEIGER

@<TRIPOS>ATOM
      1 C         139.5479  138.2180  164.7007 C.ar    1  UNL1        0.1889
      2 C         138.3855  138.5492  165.5889 C.ar    1  UNL1        0.1403
      3 N         138.6061  139.3202  166.8566 N.ar    1  UNL1       -0.2204
      4 C         139.9891  139.7599  167.2360 C.ar    1  UNL1        0.1816
      5 N         141.1515  139.4287  166.3477 N.ar    1  UNL1       -0.2074
      6 C         140.9309  138.6578  165.0800 C.ar    1  UNL1        0.1663
      7 C         140.2096  140.5309  168.5036 C.ar    1  UNL1        0.1170
      8 C         140.3294  142.0255  168.4613 C.ar    1  UNL1        0.0223
      9 C         140.5500  142.7964  169.7290 C.ar    1  UNL1        0.0032
     10 C         140.6508  142.0728  171.0390 C.ar    1  UNL1        0.0207
     11 C         140.5310  140.5782  171.0813 C.ar    1  UNL1        0.0989
     12 N         140.3104  139.8073  169.8136 N.ar    1  UNL1       -0.2407
     13 C         138.5111  138.0434  162.3248 C.3     1  UNL1        0.2527
     14 O         139.3274  137.4470  163.4330 O.3     1  UNL1       -0.4670
     15 N         142.0934  138.3266  164.1917 N.pl3   1  UNL1       -0.3119
     16 H         141.9565  137.7777  163.3859 H       1  UNL1        0.1486
     17 C         143.4644  138.8316  164.5312 C.3     1  UNL1        0.1177
     18 C         143.9324  140.1509  163.9923 C.ar    1  UNL1        0.0249
     19 C         144.3921  140.2590  162.5686 C.ar    1  UNL1       -0.0004
     20 C         144.8601  141.5784  162.0298 C.ar    1  UNL1       -0.0001
     21 C         144.8684  142.7895  162.9146 C.ar    1  UNL1        0.0023
     22 C         144.4088  142.6814  164.3383 C.ar    1  UNL1        0.0294
     23 C         143.9407  141.3621  164.8772 C.ar    1  UNL1        0.1377
     24 F         143.4811  141.2540  166.3009 F       1  UNL1       -0.2044
@<TRIPOS>BOND
     1    13    14    1
     2    14     1    1
     3     1     2   ar
     4     2     3   ar
     5     3     4   ar
     6     4     7    1
     7     7     8   ar
     8     8     9   ar
     9     9    10   ar
    10    10    11   ar
    11    11    12   ar
    12     4     5   ar
    13     5     6   ar
    14     6    15    1
    15    15    17    1
    16    17    18    1
    17    18    19   ar
    18    19    20   ar
    19    20    21   ar
    20    21    22   ar
    21    22    23   ar
    22    23    24    1
    23     6     1   ar
    24    23    18   ar
    25    12     7   ar
    26    15    16    1
