@<TRIPOS>MOLECULE
*****
 33 37 0 0 0
SMALL
GASTEIGER

@<TRIPOS>ATOM
      1 C         141.8335  139.7223  164.5683 C.ar    1  UNL1        0.1213
      2 N         141.7335  140.8667  163.6037 N.ar    1  UNL1       -0.2233
      3 C         142.9688  141.6123  163.1939 C.ar    1  UNL1        0.1654
      4 C         143.1796  142.7734  162.2679 C.ar    1  UNL1        0.0569
      5 C         144.6452  143.0921  162.2502 C.ar    1  UNL1        0.1236
      6 N         145.3402  142.1281  163.1654 N.ar    1  UNL1       -0.1620
      7 N         144.3042  141.2135  163.7486 N.ar    1  UNL1       -0.2076
      8 C         144.4042  140.0691  164.7131 C.ar    1  UNL1        0.1404
      9 C         143.1688  139.3235  165.1230 C.ar    1  UNL1        0.1753
     10 C         137.3648  138.3831  167.0418 C.3     1  UNL1        0.1538
     11 N         138.5441  138.3612  166.1151 N.ar    1  UNL1       -0.2473
     12 C         139.6245  139.3989  166.0382 C.ar    1  UNL1        0.0983
     13 C         140.5981  138.9767  164.9781 C.ar    1  UNL1        0.0603
     14 C         140.1195  137.6781  164.3998 C.ar    1  UNL1        0.1232
     15 N         138.8500  137.2976  165.1025 N.ar    1  UNL1       -0.1675
     16 C         142.1121  143.4898  161.4951 C.ar    1  UNL1        0.0107
     17 C         142.3072  143.7768  160.0359 C.ar    1  UNL1        0.0210
     18 C         141.2397  144.4933  159.2630 C.ar    1  UNL1        0.1021
     19 N         139.9771  144.9228  159.9496 N.ar    1  UNL1       -0.2101
     20 C         139.7820  144.6358  161.4089 C.ar    1  UNL1        0.2248
     21 C         140.8495  143.9193  162.1817 C.ar    1  UNL1        0.0579
     22 O         138.5194  145.0653  162.0954 O.3     1  UNL1       -0.4640
     23 C         138.0610  144.3558  163.3350 C.3     1  UNL1        0.1678
     24 C         137.7435  144.3755  164.8008 C.3     1  UNL1        0.0473
     25 C         137.5846  143.1071  164.0160 C.3     1  UNL1        0.0473
     26 O         143.2689  138.1791  166.0875 O.3     1  UNL1       -0.4723
     27 C         143.3505  138.4454  167.5614 C.3     1  UNL1        0.2080
     28 C         142.6095  139.6062  168.1560 C.3     1  UNL1        0.0742
     29 C         142.7845  139.9438  169.6070 C.3     1  UNL1        0.0921
     30 C         142.5997  138.4991  169.9655 C.3     1  UNL1        0.0294
     31 C         142.9693  141.3886  169.2485 C.3     1  UNL1        0.0294
     32 O         142.9595  140.2815  171.0580 O.3     1  UNL1       -0.3866
     33 H         142.8846  139.4734  171.5893 H       1  UNL1        0.2102
@<TRIPOS>BOND
     1    10    11    1
     2    11    12   ar
     3    12    13   ar
     4    13     1    1
     5     1     2   ar
     6     2     3   ar
     7     3     4   ar
     8     4    16    1
     9    16    17   ar
    10    17    18   ar
    11    18    19   ar
    12    19    20   ar
    13    20    22    1
    14    22    23    1
    15    23    24    1
    16    24    25    1
    17    20    21   ar
    18     4     5   ar
    19     5     6   ar
    20     6     7   ar
    21     7     8   ar
    22     8     9   ar
    23     9    26    1
    24    26    27    1
    25    27    28    1
    26    28    29    1
    27    29    30    1
    28    29    31    1
    29    29    32    1
    30    13    14   ar
    31    14    15   ar
    32    15    11   ar
    33     9     1   ar
    34     7     3   ar
    35    21    16   ar
    36    25    23    1
    37    32    33    1
@<TRIPOS>MOLECULE
*****
 33 37 0 0 0
SMALL
GASTEIGER

@<TRIPOS>ATOM
      1 C         141.3720  140.9802  165.5065 C.ar    1  UNL1        0.1213
      2 N         141.2785  142.0950  164.5073 N.ar    1  UNL1       -0.2233
      3 C         142.3532  143.1397  164.4465 C.ar    1  UNL1        0.1654
      4 C         142.5310  144.3472  163.5744 C.ar    1  UNL1        0.0569
      5 C         143.8090  145.0233  163.9739 C.ar    1  UNL1        0.1236
      6 N         144.4210  144.2337  165.0928 N.ar    1  UNL1       -0.1620
      7 N         143.5213  143.0696  165.3849 N.ar    1  UNL1       -0.2076
      8 C         143.6148  141.9548  166.3841 C.ar    1  UNL1        0.1404
      9 C         142.5401  140.9100  166.4449 C.ar    1  UNL1        0.1753
     10 C         137.2818  138.0730  167.1494 C.3     1  UNL1        0.1538
     11 N         138.4173  138.5992  166.3225 N.ar    1  UNL1       -0.2473
     12 C         139.2995  139.7604  166.6735 C.ar    1  UNL1        0.0983
     13 C         140.2973  139.9355  165.5673 C.ar    1  UNL1        0.0603
     14 C         140.0318  138.8825  164.5326 C.ar    1  UNL1        0.1232
     15 N         138.8698  138.0566  164.9993 N.ar    1  UNL1       -0.1675
     16 C         141.5951  144.7991  162.4928 C.ar    1  UNL1        0.0107
     17 C         140.4893  145.7612  162.8116 C.ar    1  UNL1        0.0210
     18 C         139.5534  146.2132  161.7300 C.ar    1  UNL1        0.1021
     19 N         139.7233  145.7031  160.3297 N.ar    1  UNL1       -0.2101
     20 C         140.8290  144.7410  160.0110 C.ar    1  UNL1        0.2248
     21 C         141.7650  144.2890  161.0925 C.ar    1  UNL1        0.0579
     22 O         140.9989  144.2309  158.6107 O.3     1  UNL1       -0.4640
     23 C         140.5117  145.0476  157.4506 C.3     1  UNL1        0.1678
     24 C         140.1441  145.1542  156.0003 C.3     1  UNL1        0.0473
     25 C         140.0355  146.3556  156.8918 C.3     1  UNL1        0.0473
     26 O         142.6335  139.7952  167.4441 O.3     1  UNL1       -0.4723
     27 C         142.1075  139.9890  168.8354 C.3     1  UNL1        0.2080
     28 C         141.6068  141.3354  169.2672 C.3     1  UNL1        0.0742
     29 C         141.9381  141.8556  170.6345 C.3     1  UNL1        0.0921
     30 C         143.0598  142.6653  170.0548 C.3     1  UNL1        0.0294
     31 C         140.8163  141.0459  171.2143 C.3     1  UNL1        0.0294
     32 O         142.2693  142.3758  172.0019 O.3     1  UNL1       -0.3866
     33 H         143.0246  142.9816  171.9431 H       1  UNL1        0.2102
@<TRIPOS>BOND
     1    10    11    1
     2    11    12   ar
     3    12    13   ar
     4    13     1    1
     5     1     2   ar
     6     2     3   ar
     7     3     4   ar
     8     4    16    1
     9    16    17   ar
    10    17    18   ar
    11    18    19   ar
    12    19    20   ar
    13    20    22    1
    14    22    23    1
    15    23    24    1
    16    24    25    1
    17    20    21   ar
    18     4     5   ar
    19     5     6   ar
    20     6     7   ar
    21     7     8   ar
    22     8     9   ar
    23     9    26    1
    24    26    27    1
    25    27    28    1
    26    28    29    1
    27    29    30    1
    28    29    31    1
    29    29    32    1
    30    13    14   ar
    31    14    15   ar
    32    15    11   ar
    33     9     1   ar
    34     7     3   ar
    35    21    16   ar
    36    25    23    1
    37    32    33    1
@<TRIPOS>MOLECULE
*****
 33 37 0 0 0
SMALL
GASTEIGER

@<TRIPOS>ATOM
      1 C         140.7264  139.7567  163.3449 C.ar    1  UNL1        0.1213
      2 N         140.7224  140.1602  164.7896 N.ar    1  UNL1       -0.2233
      3 C         139.6564  139.6433  165.7097 C.ar    1  UNL1        0.1654
      4 C         139.3970  139.8654  167.1703 C.ar    1  UNL1        0.0569
      5 C         138.1748  139.0824  167.5484 C.ar    1  UNL1        0.1236
      6 N         137.6788  138.3763  166.3214 N.ar    1  UNL1       -0.1620
      7 N         138.5944  138.7230  165.1850 N.ar    1  UNL1       -0.2076
      8 C         138.5984  138.3195  163.7404 C.ar    1  UNL1        0.1404
      9 C         139.6645  138.8364  162.8202 C.ar    1  UNL1        0.1753
     10 C         143.4162  142.8371  160.0047 C.3     1  UNL1        0.1538
     11 N         143.0287  141.6895  160.8895 N.ar    1  UNL1       -0.2473
     12 C         141.7652  141.5814  161.6907 C.ar    1  UNL1        0.0983
     13 C         141.7924  140.2736  162.4248 C.ar    1  UNL1        0.0603
     14 C         143.0726  139.5734  162.0773 C.ar    1  UNL1        0.1232
     15 N         143.8368  140.4485  161.1285 N.ar    1  UNL1       -0.1675
     16 C         140.2161  140.7205  168.0912 C.ar    1  UNL1        0.0107
     17 C         139.7420  140.9843  169.4896 C.ar    1  UNL1        0.0210
     18 C         140.5611  141.8394  170.4105 C.ar    1  UNL1        0.1021
     19 N         141.8543  142.4306  169.9330 N.ar    1  UNL1       -0.2101
     20 C         142.3284  142.1667  168.5345 C.ar    1  UNL1        0.2248
     21 C         141.5093  141.3117  167.6136 C.ar    1  UNL1        0.0579
     22 O         143.6216  142.7580  168.0570 O.3     1  UNL1       -0.4640
     23 C         143.8952  142.8747  166.5868 C.3     1  UNL1        0.1678
     24 C         143.7554  142.3387  165.1928 C.3     1  UNL1        0.0473
     25 C         144.5089  143.6131  165.4343 C.3     1  UNL1        0.0473
     26 O         139.6685  138.4329  161.3755 O.3     1  UNL1       -0.4723
     27 C         138.9330  139.2607  160.3636 C.3     1  UNL1        0.2080
     28 C         137.9325  140.2829  160.8152 C.3     1  UNL1        0.0742
     29 C         138.2503  141.7445  160.7020 C.3     1  UNL1        0.0921
     30 C         137.8367  141.9451  162.1298 C.3     1  UNL1        0.0294
     31 C         138.6640  141.5439  159.2742 C.3     1  UNL1        0.0294
     32 O         138.5682  143.2061  160.5888 O.3     1  UNL1       -0.3866
     33 H         138.3845  143.6434  161.4349 H       1  UNL1        0.2102
@<TRIPOS>BOND
     1    10    11    1
     2    11    12   ar
     3    12    13   ar
     4    13     1    1
     5     1     2   ar
     6     2     3   ar
     7     3     4   ar
     8     4    16    1
     9    16    17   ar
    10    17    18   ar
    11    18    19   ar
    12    19    20   ar
    13    20    22    1
    14    22    23    1
    15    23    24    1
    16    24    25    1
    17    20    21   ar
    18     4     5   ar
    19     5     6   ar
    20     6     7   ar
    21     7     8   ar
    22     8     9   ar
    23     9    26    1
    24    26    27    1
    25    27    28    1
    26    28    29    1
    27    29    30    1
    28    29    31    1
    29    29    32    1
    30    13    14   ar
    31    14    15   ar
    32    15    11   ar
    33     9     1   ar
    34     7     3   ar
    35    21    16   ar
    36    25    23    1
    37    32    33    1
@<TRIPOS>MOLECULE
*****
 33 37 0 0 0
SMALL
GASTEIGER

@<TRIPOS>ATOM
      1 C         141.5298  138.9093  159.2885 C.ar    1  UNL1        0.1213
      2 N         141.8407  137.9154  158.2087 N.ar    1  UNL1       -0.2233
      3 C         142.9060  138.2164  157.1966 C.ar    1  UNL1        0.1654
      4 C         143.4286  137.4358  156.0271 C.ar    1  UNL1        0.0569
      5 C         144.5060  138.2481  155.3718 C.ar    1  UNL1        0.1236
      6 N         144.6493  139.5307  156.1363 N.ar    1  UNL1       -0.1620
      7 N         143.6605  139.5111  157.2641 N.ar    1  UNL1       -0.2076
      8 C         143.3496  140.5049  158.3437 C.ar    1  UNL1        0.1404
      9 C         142.2842  140.2040  159.3559 C.ar    1  UNL1        0.1753
     10 C         139.1090  137.4603  163.7517 C.3     1  UNL1        0.1538
     11 N         139.3518  137.9423  162.3522 N.ar    1  UNL1       -0.2473
     12 C         140.6904  138.1031  161.6948 C.ar    1  UNL1        0.0983
     13 C         140.4645  138.6083  160.3006 C.ar    1  UNL1        0.0603
     14 C         138.9862  138.7598  160.0964 C.ar    1  UNL1        0.1232
     15 N         138.2984  138.3482  161.3643 N.ar    1  UNL1       -0.1675
     16 C         142.9566  136.0808  155.5897 C.ar    1  UNL1        0.0107
     17 C         142.4122  135.8870  154.2055 C.ar    1  UNL1        0.0210
     18 C         141.9402  134.5320  153.7681 C.ar    1  UNL1        0.1021
     19 N         142.0126  133.3709  154.7149 N.ar    1  UNL1       -0.2101
     20 C         142.5570  133.5647  156.0991 C.ar    1  UNL1        0.2248
     21 C         143.0290  134.9197  156.5366 C.ar    1  UNL1        0.0579
     22 O         142.6294  132.4036  157.0459 O.3     1  UNL1       -0.4640
     23 C         143.9606  131.9225  157.5423 C.3     1  UNL1        0.1678
     24 C         144.8538  130.8024  157.9869 C.3     1  UNL1        0.0473
     25 C         145.3731  132.2093  157.9576 C.3     1  UNL1        0.0473
     26 O         141.9733  141.1978  160.4356 O.3     1  UNL1       -0.4723
     27 C         143.0880  141.8442  161.2035 C.3     1  UNL1        0.2080
     28 C         143.6395  141.1778  162.4290 C.3     1  UNL1        0.0742
     29 C         145.0376  141.4787  162.8815 C.3     1  UNL1        0.0921
     30 C         145.0528  142.7056  162.0186 C.3     1  UNL1        0.0294
     31 C         145.0224  140.2518  163.7443 C.3     1  UNL1        0.0294
     32 O         146.4357  141.7796  163.3340 O.3     1  UNL1       -0.3866
     33 H         146.7463  142.5925  162.9054 H       1  UNL1        0.2102
@<TRIPOS>BOND
     1    10    11    1
     2    11    12   ar
     3    12    13   ar
     4    13     1    1
     5     1     2   ar
     6     2     3   ar
     7     3     4   ar
     8     4    16    1
     9    16    17   ar
    10    17    18   ar
    11    18    19   ar
    12    19    20   ar
    13    20    22    1
    14    22    23    1
    15    23    24    1
    16    24    25    1
    17    20    21   ar
    18     4     5   ar
    19     5     6   ar
    20     6     7   ar
    21     7     8   ar
    22     8     9   ar
    23     9    26    1
    24    26    27    1
    25    27    28    1
    26    28    29    1
    27    29    30    1
    28    29    31    1
    29    29    32    1
    30    13    14   ar
    31    14    15   ar
    32    15    11   ar
    33     9     1   ar
    34     7     3   ar
    35    21    16   ar
    36    25    23    1
    37    32    33    1
@<TRIPOS>MOLECULE
*****
 33 37 0 0 0
SMALL
GASTEIGER

@<TRIPOS>ATOM
      1 C         140.3147  138.8086  161.2682 C.ar    1  UNL1        0.1213
      2 N         141.0247  138.7391  159.9487 N.ar    1  UNL1       -0.2233
      3 C         140.2977  139.0959  158.6861 C.ar    1  UNL1        0.1654
      4 C         140.7325  139.1220  157.2507 C.ar    1  UNL1        0.0569
      5 C         139.5642  139.5645  156.4204 C.ar    1  UNL1        0.1236
      6 N         138.4074  139.8119  157.3427 N.ar    1  UNL1       -0.1620
      7 N         138.8607  139.5223  158.7430 N.ar    1  UNL1       -0.2076
      8 C         138.1507  139.5918  160.0624 C.ar    1  UNL1        0.1404
      9 C         138.8777  139.2350  161.3251 C.ar    1  UNL1        0.1753
     10 C         143.6008  139.0017  165.3967 C.3     1  UNL1        0.1538
     11 N         142.5521  138.5405  164.4284 N.ar    1  UNL1       -0.2473
     12 C         142.1028  139.2741  163.1996 C.ar    1  UNL1        0.0983
     13 C         141.0416  138.4517  162.5308 C.ar    1  UNL1        0.0603
     14 C         140.8350  137.2097  163.3461 C.ar    1  UNL1        0.1232
     15 N         141.7685  137.2645  164.5190 N.ar    1  UNL1       -0.1675
     16 C         142.0961  138.7677  156.7360 C.ar    1  UNL1        0.0107
     17 C         143.1307  139.8385  156.5541 C.ar    1  UNL1        0.0210
     18 C         144.4944  139.4844  156.0394 C.ar    1  UNL1        0.1021
     19 N         144.8235  138.0593  155.7065 N.ar    1  UNL1       -0.2101
     20 C         143.7890  136.9885  155.8883 C.ar    1  UNL1        0.2248
     21 C         142.4253  137.3427  156.4030 C.ar    1  UNL1        0.0579
     22 O         144.1181  135.5634  155.5554 O.3     1  UNL1       -0.4640
     23 C         143.6783  134.4587  156.4699 C.3     1  UNL1        0.1678
     24 C         142.9201  133.1845  156.6968 C.3     1  UNL1        0.0473
     25 C         143.6747  133.8197  157.8269 C.3     1  UNL1        0.0473
     26 O         138.1676  139.3045  162.6445 O.3     1  UNL1       -0.4723
     27 C         137.6932  140.6260  163.1722 C.3     1  UNL1        0.2080
     28 C         138.5958  141.8228  163.1184 C.3     1  UNL1        0.0742
     29 C         138.0214  143.1844  162.8613 C.3     1  UNL1        0.0921
     30 C         137.8037  143.3706  164.3337 C.3     1  UNL1        0.0294
     31 C         138.2392  142.9982  161.3889 C.3     1  UNL1        0.0294
     32 O         137.4471  144.5460  162.6041 O.3     1  UNL1       -0.3866
     33 H         137.1905  144.9531  163.4464 H       1  UNL1        0.2102
@<TRIPOS>BOND
     1    10    11    1
     2    11    12   ar
     3    12    13   ar
     4    13     1    1
     5     1     2   ar
     6     2     3   ar
     7     3     4   ar
     8     4    16    1
     9    16    17   ar
    10    17    18   ar
    11    18    19   ar
    12    19    20   ar
    13    20    22    1
    14    22    23    1
    15    23    24    1
    16    24    25    1
    17    20    21   ar
    18     4     5   ar
    19     5     6   ar
    20     6     7   ar
    21     7     8   ar
    22     8     9   ar
    23     9    26    1
    24    26    27    1
    25    27    28    1
    26    28    29    1
    27    29    30    1
    28    29    31    1
    29    29    32    1
    30    13    14   ar
    31    14    15   ar
    32    15    11   ar
    33     9     1   ar
    34     7     3   ar
    35    21    16   ar
    36    25    23    1
    37    32    33    1
@<TRIPOS>MOLECULE
*****
 33 37 0 0 0
SMALL
GASTEIGER

@<TRIPOS>ATOM
      1 C         141.2024  139.0634  160.0591 C.ar    1  UNL1        0.1213
      2 N         141.4554  138.1758  158.8767 N.ar    1  UNL1       -0.2233
      3 C         142.4862  138.5603  157.8571 C.ar    1  UNL1        0.1654
      4 C         142.9507  137.8909  156.5977 C.ar    1  UNL1        0.0569
      5 C         144.0156  138.7494  155.9821 C.ar    1  UNL1        0.1236
      6 N         144.2092  139.9494  156.8611 N.ar    1  UNL1       -0.1620
      7 N         143.2640  139.8325  158.0199 N.ar    1  UNL1       -0.2076
      8 C         143.0110  140.7202  159.2023 C.ar    1  UNL1        0.1404
      9 C         141.9802  140.3357  160.2219 C.ar    1  UNL1        0.1753
     10 C         138.9292  137.5557  164.5802 C.3     1  UNL1        0.1538
     11 N         139.1268  137.9859  163.1568 N.ar    1  UNL1       -0.2473
     12 C         140.4416  138.2890  162.5017 C.ar    1  UNL1        0.0983
     13 C         140.1716  138.6789  161.0787 C.ar    1  UNL1        0.0603
     14 C         138.6898  138.6167  160.8543 C.ar    1  UNL1        0.1232
     15 N         138.0440  138.1883  162.1386 N.ar    1  UNL1       -0.1675
     16 C         142.4400  136.5912  156.0500 C.ar    1  UNL1        0.0107
     17 C         141.6166  136.5775  154.7964 C.ar    1  UNL1        0.0210
     18 C         141.1058  135.2778  154.2486 C.ar    1  UNL1        0.1021
     19 N         141.4185  133.9918  154.9546 N.ar    1  UNL1       -0.2101
     20 C         142.2420  134.0056  156.2083 C.ar    1  UNL1        0.2248
     21 C         142.7528  135.3053  156.7560 C.ar    1  UNL1        0.0579
     22 O         142.5548  132.7196  156.9143 O.3     1  UNL1       -0.4640
     23 C         143.9800  132.2816  157.0786 C.3     1  UNL1        0.1678
     24 C         145.2188  131.6519  156.5140 C.3     1  UNL1        0.0473
     25 C         145.2096  132.1527  157.9279 C.3     1  UNL1        0.0473
     26 O         141.7272  141.2233  161.4043 O.3     1  UNL1       -0.4723
     27 C         140.5849  142.1952  161.3817 C.3     1  UNL1        0.2080
     28 C         139.7027  142.3439  162.5857 C.3     1  UNL1        0.0742
     29 C         138.3088  141.7901  162.5672 C.3     1  UNL1        0.0921
     30 C         138.4735  141.3281  163.9847 C.3     1  UNL1        0.0294
     31 C         138.1441  142.2522  161.1497 C.3     1  UNL1        0.0294
     32 O         136.9149  141.2364  162.5487 O.3     1  UNL1       -0.3866
     33 H         136.7148  140.8354  163.4090 H       1  UNL1        0.2102
@<TRIPOS>BOND
     1    10    11    1
     2    11    12   ar
     3    12    13   ar
     4    13     1    1
     5     1     2   ar
     6     2     3   ar
     7     3     4   ar
     8     4    16    1
     9    16    17   ar
    10    17    18   ar
    11    18    19   ar
    12    19    20   ar
    13    20    22    1
    14    22    23    1
    15    23    24    1
    16    24    25    1
    17    20    21   ar
    18     4     5   ar
    19     5     6   ar
    20     6     7   ar
    21     7     8   ar
    22     8     9   ar
    23     9    26    1
    24    26    27    1
    25    27    28    1
    26    28    29    1
    27    29    30    1
    28    29    31    1
    29    29    32    1
    30    13    14   ar
    31    14    15   ar
    32    15    11   ar
    33     9     1   ar
    34     7     3   ar
    35    21    16   ar
    36    25    23    1
    37    32    33    1
@<TRIPOS>MOLECULE
*****
 33 37 0 0 0
SMALL
GASTEIGER

@<TRIPOS>ATOM
      1 C         140.3330  138.8325  161.1953 C.ar    1  UNL1        0.1213
      2 N         141.0530  138.7750  159.8806 N.ar    1  UNL1       -0.2233
      3 C         140.3323  139.1325  158.6146 C.ar    1  UNL1        0.1654
      4 C         140.7771  139.1690  157.1825 C.ar    1  UNL1        0.0569
      5 C         139.6114  139.6065  156.3460 C.ar    1  UNL1        0.1236
      6 N         138.4461  139.8403  157.2612 N.ar    1  UNL1       -0.1620
      7 N         138.8917  139.5474  158.6632 N.ar    1  UNL1       -0.2076
      8 C         138.1717  139.6048  159.9778 C.ar    1  UNL1        0.1404
      9 C         138.8924  139.2473  161.2439 C.ar    1  UNL1        0.1753
     10 C         143.7867  138.8684  165.1892 C.3     1  UNL1        0.1538
     11 N         142.6412  138.4915  164.2971 N.ar    1  UNL1       -0.2473
     12 C         142.2514  139.1816  163.0236 C.ar    1  UNL1        0.0983
     13 C         141.0537  138.4750  162.4613 C.ar    1  UNL1        0.0603
     14 C         140.7032  137.3482  163.3873 C.ar    1  UNL1        0.1232
     15 N         141.6843  137.3584  164.5219 N.ar    1  UNL1       -0.1675
     16 C         142.1471  138.8280  156.6759 C.ar    1  UNL1        0.0107
     17 C         143.1714  139.9092  156.4974 C.ar    1  UNL1        0.0210
     18 C         144.5415  139.5682  155.9908 C.ar    1  UNL1        0.1021
     19 N         144.8873  138.1460  155.6626 N.ar    1  UNL1       -0.2101
     20 C         143.8630  137.0648  155.8410 C.ar    1  UNL1        0.2248
     21 C         142.4929  137.4058  156.3476 C.ar    1  UNL1        0.0579
     22 O         144.2087  135.6426  155.5128 O.3     1  UNL1       -0.4640
     23 C         143.7224  134.5301  156.3936 C.3     1  UNL1        0.1678
     24 C         143.8254  133.7395  157.6642 C.3     1  UNL1        0.0473
     25 C         142.7771  133.3937  156.6486 C.3     1  UNL1        0.0473
     26 O         138.1724  139.3048  162.5585 O.3     1  UNL1       -0.4723
     27 C         138.2088  140.5597  163.3794 C.3     1  UNL1        0.2080
     28 C         138.0745  140.4841  164.8715 C.3     1  UNL1        0.0742
     29 C         139.1858  139.9055  165.6962 C.3     1  UNL1        0.0921
     30 C         140.0628  141.0655  165.3283 C.3     1  UNL1        0.0294
     31 C         138.3089  138.7455  166.0641 C.3     1  UNL1        0.0294
     32 O         140.2972  139.3270  166.5209 O.3     1  UNL1       -0.3866
     33 H         141.0714  139.9095  166.4744 H       1  UNL1        0.2102
@<TRIPOS>BOND
     1    10    11    1
     2    11    12   ar
     3    12    13   ar
     4    13     1    1
     5     1     2   ar
     6     2     3   ar
     7     3     4   ar
     8     4    16    1
     9    16    17   ar
    10    17    18   ar
    11    18    19   ar
    12    19    20   ar
    13    20    22    1
    14    22    23    1
    15    23    24    1
    16    24    25    1
    17    20    21   ar
    18     4     5   ar
    19     5     6   ar
    20     6     7   ar
    21     7     8   ar
    22     8     9   ar
    23     9    26    1
    24    26    27    1
    25    27    28    1
    26    28    29    1
    27    29    30    1
    28    29    31    1
    29    29    32    1
    30    13    14   ar
    31    14    15   ar
    32    15    11   ar
    33     9     1   ar
    34     7     3   ar
    35    21    16   ar
    36    25    23    1
    37    32    33    1
@<TRIPOS>MOLECULE
*****
 33 37 0 0 0
SMALL
GASTEIGER

@<TRIPOS>ATOM
      1 C         141.2096  140.7458  165.2560 C.ar    1  UNL1        0.1213
      2 N         141.1139  141.6116  164.0347 N.ar    1  UNL1       -0.2233
      3 C         142.1197  142.7008  163.8068 C.ar    1  UNL1        0.1654
      4 C         142.2791  143.7051  162.7042 C.ar    1  UNL1        0.0569
      5 C         143.4791  144.5494  163.0160 C.ar    1  UNL1        0.1236
      6 N         144.0613  144.0668  164.3114 N.ar    1  UNL1       -0.1620
      7 N         143.2212  142.9243  164.8002 N.ar    1  UNL1       -0.2076
      8 C         143.3169  142.0586  166.0214 C.ar    1  UNL1        0.1404
      9 C         142.3111  140.9694  166.2493 C.ar    1  UNL1        0.1753
     10 C         137.1967  137.9531  167.2504 C.3     1  UNL1        0.1538
     11 N         138.3593  138.3729  166.4006 N.ar    1  UNL1       -0.2473
     12 C         139.1325  139.6514  166.5337 C.ar    1  UNL1        0.0983
     13 C         140.2038  139.6566  165.4838 C.ar    1  UNL1        0.0603
     14 C         140.0927  138.3814  164.7019 C.ar    1  UNL1        0.1232
     15 N         138.9527  137.5880  165.2684 N.ar    1  UNL1       -0.1675
     16 C         141.3939  143.8413  161.5009 C.ar    1  UNL1        0.0107
     17 C         141.0718  145.2015  160.9568 C.ar    1  UNL1        0.0210
     18 C         140.1865  145.3378  159.7535 C.ar    1  UNL1        0.1021
     19 N         139.6234  144.1137  159.0944 N.ar    1  UNL1       -0.2101
     20 C         139.9455  142.7535  159.6384 C.ar    1  UNL1        0.2248
     21 C         140.8307  142.6172  160.8417 C.ar    1  UNL1        0.0579
     22 O         139.3824  141.5295  158.9792 O.3     1  UNL1       -0.4640
     23 C         139.7424  140.1674  159.4942 C.3     1  UNL1        0.1678
     24 C         140.7619  139.0894  159.7139 C.3     1  UNL1        0.0473
     25 C         139.3463  138.8863  160.1665 C.3     1  UNL1        0.0473
     26 O         142.4068  140.1037  167.4705 O.3     1  UNL1       -0.4723
     27 C         142.1988  140.7003  168.8310 C.3     1  UNL1        0.2080
     28 C         140.9946  141.5533  169.0997 C.3     1  UNL1        0.0742
     29 C         140.6689  141.9701  170.5033 C.3     1  UNL1        0.0921
     30 C         140.4677  143.3817  170.0375 C.3     1  UNL1        0.0294
     31 C         140.8701  140.5586  170.9692 C.3     1  UNL1        0.0294
     32 O         140.3432  142.3869  171.9070 O.3     1  UNL1       -0.3866
     33 H         140.1503  143.3374  171.9255 H       1  UNL1        0.2102
@<TRIPOS>BOND
     1    10    11    1
     2    11    12   ar
     3    12    13   ar
     4    13     1    1
     5     1     2   ar
     6     2     3   ar
     7     3     4   ar
     8     4    16    1
     9    16    17   ar
    10    17    18   ar
    11    18    19   ar
    12    19    20   ar
    13    20    22    1
    14    22    23    1
    15    23    24    1
    16    24    25    1
    17    20    21   ar
    18     4     5   ar
    19     5     6   ar
    20     6     7   ar
    21     7     8   ar
    22     8     9   ar
    23     9    26    1
    24    26    27    1
    25    27    28    1
    26    28    29    1
    27    29    30    1
    28    29    31    1
    29    29    32    1
    30    13    14   ar
    31    14    15   ar
    32    15    11   ar
    33     9     1   ar
    34     7     3   ar
    35    21    16   ar
    36    25    23    1
    37    32    33    1
@<TRIPOS>MOLECULE
*****
 33 37 0 0 0
SMALL
GASTEIGER

@<TRIPOS>ATOM
      1 C         141.5040  143.4132  159.1563 C.ar    1  UNL1        0.1213
      2 N         140.6523  142.4998  159.9871 N.ar    1  UNL1       -0.2233
      3 C         139.6953  143.0727  160.9900 C.ar    1  UNL1        0.1654
      4 C         138.7346  142.4264  161.9437 C.ar    1  UNL1        0.0569
      5 C         138.0356  143.5133  162.7052 C.ar    1  UNL1        0.1236
      6 N         138.5642  144.8314  162.2222 N.ar    1  UNL1       -0.1620
      7 N         139.5899  144.5591  161.1621 N.ar    1  UNL1       -0.2076
      8 C         140.4416  145.4725  160.3313 C.ar    1  UNL1        0.1404
      9 C         141.3987  144.8996  159.3284 C.ar    1  UNL1        0.1753
     10 C         145.9600  141.8903  156.7677 C.3     1  UNL1        0.1538
     11 N         144.5092  142.1403  157.0554 N.ar    1  UNL1       -0.2473
     12 C         143.9547  142.7974  158.2845 C.ar    1  UNL1        0.0983
     13 C         142.4610  142.8403  158.1534 C.ar    1  UNL1        0.0603
     14 C         142.0925  142.2096  156.8432 C.ar    1  UNL1        0.1232
     15 N         143.3583  141.7769  156.1647 N.ar    1  UNL1       -0.1675
     16 C         138.5121  140.9520  162.1071 C.ar    1  UNL1        0.0107
     17 C         137.8442  140.1689  161.0160 C.ar    1  UNL1        0.0210
     18 C         137.6216  138.6945  161.1794 C.ar    1  UNL1        0.1021
     19 N         138.0671  138.0033  162.4339 N.ar    1  UNL1       -0.2101
     20 C         138.7350  138.7864  163.5250 C.ar    1  UNL1        0.2248
     21 C         138.9575  140.2609  163.3616 C.ar    1  UNL1        0.0579
     22 O         139.1804  138.0952  164.7795 O.3     1  UNL1       -0.4640
     23 C         138.4411  138.3235  166.0646 C.3     1  UNL1        0.1678
     24 C         138.2121  139.1352  167.3050 C.3     1  UNL1        0.0473
     25 C         137.3895  137.9071  167.0498 C.3     1  UNL1        0.0473
     26 O         142.2504  145.8130  158.4976 O.3     1  UNL1       -0.4723
     27 C         141.9009  146.0635  157.0606 C.3     1  UNL1        0.2080
     28 C         140.4726  145.9784  156.6102 C.3     1  UNL1        0.0742
     29 C         140.0533  146.6198  155.3208 C.3     1  UNL1        0.0921
     30 C         139.0190  147.4203  156.0553 C.3     1  UNL1        0.0294
     31 C         141.0876  145.8194  154.5862 C.3     1  UNL1        0.0294
     32 O         139.6339  147.2613  154.0313 O.3     1  UNL1       -0.3866
     33 H         138.9130  147.8876  154.2013 H       1  UNL1        0.2102
@<TRIPOS>BOND
     1    10    11    1
     2    11    12   ar
     3    12    13   ar
     4    13     1    1
     5     1     2   ar
     6     2     3   ar
     7     3     4   ar
     8     4    16    1
     9    16    17   ar
    10    17    18   ar
    11    18    19   ar
    12    19    20   ar
    13    20    22    1
    14    22    23    1
    15    23    24    1
    16    24    25    1
    17    20    21   ar
    18     4     5   ar
    19     5     6   ar
    20     6     7   ar
    21     7     8   ar
    22     8     9   ar
    23     9    26    1
    24    26    27    1
    25    27    28    1
    26    28    29    1
    27    29    30    1
    28    29    31    1
    29    29    32    1
    30    13    14   ar
    31    14    15   ar
    32    15    11   ar
    33     9     1   ar
    34     7     3   ar
    35    21    16   ar
    36    25    23    1
    37    32    33    1
