@<TRIPOS>MOLECULE
*****
 38 42 0 0 0
SMALL
GASTEIGER

@<TRIPOS>ATOM
      1 C         140.7120  143.1805  162.5787 C.ar    1  UNL1        0.0536
      2 C         141.0835  142.2055  161.5010 C.ar    1  UNL1        0.0048
      3 C         141.2745  142.6823  160.0916 C.ar    1  UNL1        0.0047
      4 C         141.0939  144.1339  159.7599 C.ar    1  UNL1        0.0534
      5 C         140.7224  145.1089  160.8375 C.ar    1  UNL1        0.0047
      6 C         140.5314  144.6322  162.2469 C.ar    1  UNL1        0.0048
      7 C         139.4607  140.2825  166.8646 C.ar    1  UNL1        0.0143
      8 C         139.5958  140.5073  168.3415 C.ar    1  UNL1        0.0091
      9 C         140.1968  141.7823  168.8542 C.ar    1  UNL1        0.0698
     10 C         140.6628  142.8327  167.8900 C.ar    1  UNL1        0.0326
     11 C         140.5276  142.6079  166.4131 C.ar    1  UNL1        0.1192
     12 N         140.8950  143.4553  165.2312 N.ar    1  UNL1       -0.2082
     13 C         140.5210  142.7039  163.9880 C.ar    1  UNL1        0.2296
     14 O         139.9225  141.3921  164.4016 O.2     1  UNL1       -0.4349
     15 C         139.9266  141.3328  165.9005 C.ar    1  UNL1        0.1607
     16 C         137.6084  138.4640  166.9758 C.3     1  UNL1        0.0048
     17 C         138.8596  139.0074  166.3520 C.3     1  UNL1        0.0254
     18 C         139.5098  138.2756  165.2153 C.3     1  UNL1        0.0048
     19 C         140.3319  142.0070  170.3312 C.1     1  UNL1        0.1005
     20 N         140.4671  142.2318  171.8081 N.1     1  UNL1       -0.1908
     21 C         141.2849  144.6106  158.3505 C.2     1  UNL1        0.2458
     22 O         142.4396  145.5059  158.0117 O.2     1  UNL1       -0.2701
     23 N         140.3211  144.1919  157.2801 N.am    1  UNL1       -0.3009
     24 H         139.5632  143.6042  157.5025 H       1  UNL1        0.1497
     25 C         140.5121  144.6685  155.8707 C.3     1  UNL1        0.0896
     26 C         140.1774  146.0844  155.5060 C.3     1  UNL1        0.0196
     27 C         139.2627  146.8883  156.3818 C.3     1  UNL1        0.0020
     28 C         138.9280  148.3043  156.0171 C.3     1  UNL1        0.0044
     29 C         139.5079  148.9163  154.7765 C.3     1  UNL1        0.0223
     30 C         140.4226  148.1124  153.9006 C.3     1  UNL1        0.0044
     31 C         140.7574  146.6964  154.2653 C.3     1  UNL1        0.0020
     32 C         139.1732  150.3323  154.4118 C.ar    1  UNL1       -0.0225
     33 C         139.2771  150.7840  152.9852 C.ar    1  UNL1       -0.0034
     34 C         138.9424  152.1999  152.6205 C.ar    1  UNL1        0.0111
     35 C         138.5037  153.1642  153.6825 C.ar    1  UNL1        0.0577
     36 CL        138.1690  154.5802  153.3178 Cl      1  UNL1       -0.0822
     37 C         138.3998  152.7125  155.1090 C.ar    1  UNL1        0.0111
     38 C         138.7345  151.2966  155.4738 C.ar    1  UNL1       -0.0034
@<TRIPOS>BOND
     1    16    17    1
     2    17    18    1
     3    17     7    1
     4     7     8   ar
     5     8     9   ar
     6     9    19    1
     7    19    20    3
     8     9    10   ar
     9    10    11   ar
    10    11    12   ar
    11    12    13   ar
    12    13     1    1
    13     1     2   ar
    14     2     3   ar
    15     3     4   ar
    16     4    21    1
    17    21    22    2
    18    21    23   am
    19    23    25    1
    20    26    25    1
    21    26    27    1
    22    27    28    1
    23    28    29    1
    24    29    32    1
    25    32    33   ar
    26    33    34   ar
    27    34    35   ar
    28    35    36    1
    29    35    37   ar
    30    37    38   ar
    31    29    30    1
    32    30    31    1
    33     4     5   ar
    34     5     6   ar
    35    13    14   ar
    36    14    15   ar
    37    15     7   ar
    38    15    11   ar
    39     6     1   ar
    40    31    26    1
    41    38    32   ar
    42    23    24    1
@<TRIPOS>MOLECULE
*****
 38 42 0 0 0
SMALL
GASTEIGER

@<TRIPOS>ATOM
      1 C         141.4432  142.5207  162.6703 C.ar    1  UNL1        0.0536
      2 C         140.3704  142.9352  161.7073 C.ar    1  UNL1        0.0048
      3 C         140.7289  143.3028  160.2979 C.ar    1  UNL1        0.0047
      4 C         142.1602  143.2559  159.8515 C.ar    1  UNL1        0.0534
      5 C         143.2330  142.8414  160.8144 C.ar    1  UNL1        0.0047
      6 C         142.8744  142.4738  162.2238 C.ar    1  UNL1        0.0048
      7 C         139.4784  140.0676  166.9664 C.ar    1  UNL1        0.0143
      8 C         139.5401  140.3500  168.4382 C.ar    1  UNL1        0.0091
      9 C         140.2844  141.5513  168.9409 C.ar    1  UNL1        0.0698
     10 C         140.9670  142.4704  167.9717 C.ar    1  UNL1        0.0326
     11 C         140.9053  142.1881  166.4998 C.ar    1  UNL1        0.1192
     12 N         141.4762  142.9090  165.3147 N.ar    1  UNL1       -0.2082
     13 C         141.0847  142.1531  164.0797 C.ar    1  UNL1        0.2296
     14 O         140.2719  140.9651  164.5014 O.2     1  UNL1       -0.4349
     15 C         140.1609  140.9867  165.9971 C.ar    1  UNL1        0.1607
     16 C         139.2384  138.1189  165.2649 C.3     1  UNL1        0.0048
     17 C         138.7340  138.8662  166.4637 C.3     1  UNL1        0.0254
     18 C         137.4853  138.4122  167.1599 C.3     1  UNL1        0.0048
     19 C         140.3461  141.8336  170.4129 C.1     1  UNL1        0.1005
     20 N         140.4079  142.1160  171.8847 N.1     1  UNL1       -0.1908
     21 C         142.5186  143.6235  158.4421 C.2     1  UNL1        0.2458
     22 O         142.6666  145.0658  158.0578 O.2     1  UNL1       -0.2701
     23 N         142.7290  142.5488  157.4171 N.am    1  UNL1       -0.3009
     24 H         142.6319  141.6021  157.6693 H       1  UNL1        0.1497
     25 C         143.0875  142.9164  156.0077 C.3     1  UNL1        0.0896
     26 C         144.5165  142.8528  155.5563 C.3     1  UNL1        0.0196
     27 C         144.9220  143.4863  154.2585 C.3     1  UNL1        0.0020
     28 C         146.3511  143.4226  153.8071 C.3     1  UNL1        0.0044
     29 C         147.3746  142.7255  154.6535 C.3     1  UNL1        0.0223
     30 C         146.9691  142.0919  155.9513 C.3     1  UNL1        0.0044
     31 C         145.5400  142.1555  156.4027 C.3     1  UNL1        0.0020
     32 C         148.8037  142.6618  154.2021 C.ar    1  UNL1       -0.0225
     33 C         149.7580  141.7131  154.8648 C.ar    1  UNL1       -0.0034
     34 C         151.1871  141.6495  154.4134 C.ar    1  UNL1        0.0111
     35 C         151.6617  142.5346  153.2993 C.ar    1  UNL1        0.0577
     36 CL        153.0908  142.4710  152.8479 Cl      1  UNL1       -0.0822
     37 C         150.7074  143.4833  152.6366 C.ar    1  UNL1        0.0111
     38 C         149.2784  143.5470  153.0880 C.ar    1  UNL1       -0.0034
@<TRIPOS>BOND
     1    16    17    1
     2    17    18    1
     3    17     7    1
     4     7     8   ar
     5     8     9   ar
     6     9    19    1
     7    19    20    3
     8     9    10   ar
     9    10    11   ar
    10    11    12   ar
    11    12    13   ar
    12    13     1    1
    13     1     2   ar
    14     2     3   ar
    15     3     4   ar
    16     4    21    1
    17    21    22    2
    18    21    23   am
    19    23    25    1
    20    26    25    1
    21    26    27    1
    22    27    28    1
    23    28    29    1
    24    29    32    1
    25    32    33   ar
    26    33    34   ar
    27    34    35   ar
    28    35    36    1
    29    35    37   ar
    30    37    38   ar
    31    29    30    1
    32    30    31    1
    33     4     5   ar
    34     5     6   ar
    35    13    14   ar
    36    14    15   ar
    37    15     7   ar
    38    15    11   ar
    39     6     1   ar
    40    31    26    1
    41    38    32   ar
    42    23    24    1
@<TRIPOS>MOLECULE
*****
 38 42 0 0 0
SMALL
GASTEIGER

@<TRIPOS>ATOM
      1 C         141.6765  139.6562  162.9460 C.ar    1  UNL1        0.0536
      2 C         142.4630  138.4261  162.6021 C.ar    1  UNL1        0.0048
      3 C         142.4895  137.9236  161.1890 C.ar    1  UNL1        0.0047
      4 C         141.7295  138.6510  160.1198 C.ar    1  UNL1        0.0534
      5 C         140.9430  139.8811  160.4637 C.ar    1  UNL1        0.0047
      6 C         140.9165  140.3837  161.8768 C.ar    1  UNL1        0.0048
      7 C         140.3111  140.6155  168.0006 C.ar    1  UNL1        0.0143
      8 C         140.9255  141.4268  169.1026 C.ar    1  UNL1        0.0091
      9 C         142.2003  142.1787  168.8591 C.ar    1  UNL1        0.0698
     10 C         142.8608  142.1194  167.5136 C.ar    1  UNL1        0.0326
     11 C         142.2464  141.3082  166.4117 C.ar    1  UNL1        0.1192
     12 N         142.6657  141.0626  164.9926 N.ar    1  UNL1       -0.2082
     13 C         141.6499  140.1588  164.3590 C.ar    1  UNL1        0.2296
     14 O         140.6029  139.8459  165.3865 O.2     1  UNL1       -0.4349
     15 C         140.9716  140.5562  166.6552 C.ar    1  UNL1        0.1607
     16 C         138.4050  139.8782  169.6048 C.3     1  UNL1        0.0048
     17 C         139.0363  139.8636  168.2441 C.3     1  UNL1        0.0254
     18 C         138.3926  139.0969  167.1269 C.3     1  UNL1        0.0048
     19 C         142.8148  142.9900  169.9612 C.1     1  UNL1        0.1005
     20 N         143.4292  143.8012  171.0632 N.1     1  UNL1       -0.1908
     21 C         141.7561  138.1484  158.7068 C.2     1  UNL1        0.2458
     22 O         140.4891  138.0956  157.9057 O.2     1  UNL1       -0.2701
     23 N         143.0497  137.6986  158.0949 N.am    1  UNL1       -0.3009
     24 H         143.8812  137.7333  158.6207 H       1  UNL1        0.1497
     25 C         143.0762  137.1960  156.6819 C.3     1  UNL1        0.0896
     26 C         142.7330  135.7657  156.3880 C.3     1  UNL1        0.0196
     27 C         141.7866  135.4356  155.2720 C.3     1  UNL1        0.0020
     28 C         141.4433  134.0053  154.9782 C.3     1  UNL1        0.0044
     29 C         142.0464  132.9051  155.8003 C.3     1  UNL1        0.0223
     30 C         142.9928  133.2352  156.9163 C.3     1  UNL1        0.0044
     31 C         143.3361  134.6655  157.2102 C.3     1  UNL1        0.0020
     32 C         141.7031  131.4748  155.5064 C.ar    1  UNL1       -0.0225
     33 C         140.4472  131.1438  154.7561 C.ar    1  UNL1       -0.0034
     34 C         140.1040  129.7135  154.4622 C.ar    1  UNL1        0.0111
     35 C         141.0167  128.6141  154.9188 C.ar    1  UNL1        0.0577
     36 CL        140.6734  127.1838  154.6249 Cl      1  UNL1       -0.0822
     37 C         142.2726  128.9451  155.6691 C.ar    1  UNL1        0.0111
     38 C         142.6159  130.3754  155.9630 C.ar    1  UNL1       -0.0034
@<TRIPOS>BOND
     1    16    17    1
     2    17    18    1
     3    17     7    1
     4     7     8   ar
     5     8     9   ar
     6     9    19    1
     7    19    20    3
     8     9    10   ar
     9    10    11   ar
    10    11    12   ar
    11    12    13   ar
    12    13     1    1
    13     1     2   ar
    14     2     3   ar
    15     3     4   ar
    16     4    21    1
    17    21    22    2
    18    21    23   am
    19    23    25    1
    20    26    25    1
    21    26    27    1
    22    27    28    1
    23    28    29    1
    24    29    32    1
    25    32    33   ar
    26    33    34   ar
    27    34    35   ar
    28    35    36    1
    29    35    37   ar
    30    37    38   ar
    31    29    30    1
    32    30    31    1
    33     4     5   ar
    34     5     6   ar
    35    13    14   ar
    36    14    15   ar
    37    15     7   ar
    38    15    11   ar
    39     6     1   ar
    40    31    26    1
    41    38    32   ar
    42    23    24    1
@<TRIPOS>MOLECULE
*****
 38 42 0 0 0
SMALL
GASTEIGER

@<TRIPOS>ATOM
      1 C         141.9062  139.5465  161.3933 C.ar    1  UNL1        0.0536
      2 C         141.1114  140.0496  160.2249 C.ar    1  UNL1        0.0048
      3 C         141.1985  139.3492  158.9013 C.ar    1  UNL1        0.0047
      4 C         142.0804  138.1458  158.7460 C.ar    1  UNL1        0.0534
      5 C         142.8752  137.6427  159.9144 C.ar    1  UNL1        0.0047
      6 C         142.7881  138.3431  161.2380 C.ar    1  UNL1        0.0048
      7 C         140.3207  142.5705  165.4769 C.ar    1  UNL1        0.0143
      8 C         140.8899  142.8573  166.8347 C.ar    1  UNL1        0.0091
      9 C         142.1790  142.2178  167.2578 C.ar    1  UNL1        0.0698
     10 C         142.8990  141.2915  166.3231 C.ar    1  UNL1        0.0326
     11 C         142.3298  141.0048  164.9653 C.ar    1  UNL1        0.1192
     12 N         142.8110  140.1411  163.8372 N.ar    1  UNL1       -0.2082
     13 C         141.8192  140.2468  162.7169 C.ar    1  UNL1        0.2296
     14 O         140.7251  141.1759  163.1525 O.2     1  UNL1       -0.4349
     15 C         141.0406  141.6443  164.5421 C.ar    1  UNL1        0.1607
     16 C         137.9040  142.3607  164.5465 C.3     1  UNL1        0.0048
     17 C         139.0315  143.2101  165.0537 C.3     1  UNL1        0.0254
     18 C         138.8698  144.6991  165.1378 C.3     1  UNL1        0.0048
     19 C         142.7482  142.5045  168.6158 C.1     1  UNL1        0.1005
     20 N         143.3174  142.7912  169.9736 N.1     1  UNL1       -0.1908
     21 C         142.1674  137.4455  157.4224 C.2     1  UNL1        0.2458
     22 O         140.9148  137.0982  156.6740 O.2     1  UNL1       -0.2701
     23 N         143.5071  137.0926  156.8473 N.am    1  UNL1       -0.3009
     24 H         144.3292  137.3206  157.3385 H       1  UNL1        0.1497
     25 C         143.5941  136.3923  155.5236 C.3     1  UNL1        0.0896
     26 C         143.1138  134.9775  155.3906 C.3     1  UNL1        0.0196
     27 C         143.2615  134.0242  156.5393 C.3     1  UNL1        0.0020
     28 C         142.7812  132.6094  156.4063 C.3     1  UNL1        0.0044
     29 C         142.1531  132.1480  155.1246 C.3     1  UNL1        0.0223
     30 C         142.0054  133.1013  153.9759 C.3     1  UNL1        0.0044
     31 C         142.4857  134.5161  154.1089 C.3     1  UNL1        0.0020
     32 C         141.6728  130.7332  154.9917 C.ar    1  UNL1       -0.0225
     33 C         140.2593  130.4573  154.5722 C.ar    1  UNL1       -0.0034
     34 C         139.7790  129.0425  154.4392 C.ar    1  UNL1        0.0111
     35 C         140.7123  127.9036  154.7257 C.ar    1  UNL1        0.0577
     36 CL        140.2319  126.4888  154.5927 Cl      1  UNL1       -0.0822
     37 C         142.1257  128.1795  155.1451 C.ar    1  UNL1        0.0111
     38 C         142.6060  129.5943  155.2781 C.ar    1  UNL1       -0.0034
@<TRIPOS>BOND
     1    16    17    1
     2    17    18    1
     3    17     7    1
     4     7     8   ar
     5     8     9   ar
     6     9    19    1
     7    19    20    3
     8     9    10   ar
     9    10    11   ar
    10    11    12   ar
    11    12    13   ar
    12    13     1    1
    13     1     2   ar
    14     2     3   ar
    15     3     4   ar
    16     4    21    1
    17    21    22    2
    18    21    23   am
    19    23    25    1
    20    26    25    1
    21    26    27    1
    22    27    28    1
    23    28    29    1
    24    29    32    1
    25    32    33   ar
    26    33    34   ar
    27    34    35   ar
    28    35    36    1
    29    35    37   ar
    30    37    38   ar
    31    29    30    1
    32    30    31    1
    33     4     5   ar
    34     5     6   ar
    35    13    14   ar
    36    14    15   ar
    37    15     7   ar
    38    15    11   ar
    39     6     1   ar
    40    31    26    1
    41    38    32   ar
    42    23    24    1
@<TRIPOS>MOLECULE
*****
 38 42 0 0 0
SMALL
GASTEIGER

@<TRIPOS>ATOM
      1 C         141.9158  139.8014  161.6080 C.ar    1  UNL1        0.0536
      2 C         140.7770  139.0909  160.9383 C.ar    1  UNL1        0.0048
      3 C         140.9781  138.4493  159.5974 C.ar    1  UNL1        0.0047
      4 C         142.3178  138.5180  158.9263 C.ar    1  UNL1        0.0534
      5 C         143.4566  139.2284  159.5960 C.ar    1  UNL1        0.0047
      6 C         143.2555  139.8701  160.9369 C.ar    1  UNL1        0.0048
      7 C         140.0358  142.7204  165.6427 C.ar    1  UNL1        0.0143
      8 C         140.4595  142.9090  167.0692 C.ar    1  UNL1        0.0091
      9 C         141.6550  142.1749  167.5998 C.ar    1  UNL1        0.0698
     10 C         142.4269  141.2520  166.7039 C.ar    1  UNL1        0.0326
     11 C         142.0032  141.0634  165.2774 C.ar    1  UNL1        0.1192
     12 N         142.5639  140.2262  164.1662 N.ar    1  UNL1       -0.2082
     13 C         141.7148  140.4430  162.9489 C.ar    1  UNL1        0.2296
     14 O         140.6294  141.4142  163.3077 O.2     1  UNL1       -0.4349
     15 C         140.8076  141.7976  164.7469 C.ar    1  UNL1        0.1607
     16 C         137.8163  142.7271  164.2923 C.3     1  UNL1        0.0048
     17 C         138.8402  143.4547  165.1121 C.3     1  UNL1        0.0254
     18 C         138.6686  144.9166  165.4014 C.3     1  UNL1        0.0048
     19 C         142.0787  142.3635  169.0264 C.1     1  UNL1        0.1005
     20 N         142.5025  142.5521  170.4529 N.1     1  UNL1       -0.1908
     21 C         142.5188  137.8763  157.5855 C.2     1  UNL1        0.2458
     22 O         143.7477  138.1854  156.7828 O.2     1  UNL1       -0.2701
     23 N         141.4909  136.9256  157.0473 N.am    1  UNL1       -0.3009
     24 H         140.6844  136.7228  157.5741 H       1  UNL1        0.1497
     25 C         141.6919  136.2839  155.7065 C.3     1  UNL1        0.0896
     26 C         142.2740  134.9045  155.6148 C.3     1  UNL1        0.0196
     27 C         142.1367  134.1153  154.3466 C.3     1  UNL1        0.0020
     28 C         142.7187  132.7359  154.2550 C.3     1  UNL1        0.0044
     29 C         143.4381  132.1457  155.4315 C.3     1  UNL1        0.0223
     30 C         143.5754  132.9350  156.6998 C.3     1  UNL1        0.0044
     31 C         142.9934  134.3144  156.7914 C.3     1  UNL1        0.0020
     32 C         144.0201  130.7663  155.3399 C.ar    1  UNL1       -0.0225
     33 C         144.3873  130.1944  154.0027 C.ar    1  UNL1       -0.0034
     34 C         144.9693  128.8150  153.9110 C.ar    1  UNL1        0.0111
     35 C         145.1842  128.0074  155.1567 C.ar    1  UNL1        0.0577
     36 CL        145.7663  126.6280  155.0651 Cl      1  UNL1       -0.0822
     37 C         144.8171  128.5793  156.4939 C.ar    1  UNL1        0.0111
     38 C         144.2351  129.9587  156.5856 C.ar    1  UNL1       -0.0034
@<TRIPOS>BOND
     1    16    17    1
     2    17    18    1
     3    17     7    1
     4     7     8   ar
     5     8     9   ar
     6     9    19    1
     7    19    20    3
     8     9    10   ar
     9    10    11   ar
    10    11    12   ar
    11    12    13   ar
    12    13     1    1
    13     1     2   ar
    14     2     3   ar
    15     3     4   ar
    16     4    21    1
    17    21    22    2
    18    21    23   am
    19    23    25    1
    20    26    25    1
    21    26    27    1
    22    27    28    1
    23    28    29    1
    24    29    32    1
    25    32    33   ar
    26    33    34   ar
    27    34    35   ar
    28    35    36    1
    29    35    37   ar
    30    37    38   ar
    31    29    30    1
    32    30    31    1
    33     4     5   ar
    34     5     6   ar
    35    13    14   ar
    36    14    15   ar
    37    15     7   ar
    38    15    11   ar
    39     6     1   ar
    40    31    26    1
    41    38    32   ar
    42    23    24    1
@<TRIPOS>MOLECULE
*****
 38 42 0 0 0
SMALL
GASTEIGER

@<TRIPOS>ATOM
      1 C         141.6075  139.2269  162.2300 C.ar    1  UNL1        0.0536
      2 C         142.4273  138.0122  161.9101 C.ar    1  UNL1        0.0048
      3 C         142.7553  137.6831  160.4838 C.ar    1  UNL1        0.0047
      4 C         142.2635  138.5687  159.3775 C.ar    1  UNL1        0.0534
      5 C         141.4437  139.7834  159.6975 C.ar    1  UNL1        0.0047
      6 C         141.1157  140.1125  161.1238 C.ar    1  UNL1        0.0048
      7 C         141.7108  141.2166  167.1661 C.ar    1  UNL1        0.0143
      8 C         140.8167  141.0671  168.3612 C.ar    1  UNL1        0.0091
      9 C         139.5968  140.1982  168.2812 C.ar    1  UNL1        0.0698
     10 C         139.2708  139.4786  167.0060 C.ar    1  UNL1        0.0326
     11 C         140.1648  139.6280  165.8109 C.ar    1  UNL1        0.1192
     12 N         140.0997  139.0464  164.4298 N.ar    1  UNL1       -0.2082
     13 C         141.2795  139.5560  163.6562 C.ar    1  UNL1        0.2296
     14 O         142.0737  140.4526  164.5593 O.2     1  UNL1       -0.4349
     15 C         141.3848  140.4971  165.8909 C.ar    1  UNL1        0.1607
     16 C         143.5283  142.4185  168.5811 C.3     1  UNL1        0.0048
     17 C         142.9308  142.0856  167.2461 C.3     1  UNL1        0.0254
     18 C         143.5533  142.6219  165.9911 C.3     1  UNL1        0.0048
     19 C         138.7027  140.0487  169.4764 C.1     1  UNL1        0.1005
     20 N         137.8086  139.8992  170.6715 N.1     1  UNL1       -0.1908
     21 C         142.5915  138.2395  157.9513 C.2     1  UNL1        0.2458
     22 O         142.2774  139.2232  156.8634 O.2     1  UNL1       -0.2701
     23 N         143.2335  136.9268  157.6131 N.am    1  UNL1       -0.3009
     24 H         143.4396  136.2811  158.3272 H       1  UNL1        0.1497
     25 C         143.5615  136.5976  156.1869 C.3     1  UNL1        0.0896
     26 C         143.0795  135.3114  155.5841 C.3     1  UNL1        0.0196
     27 C         143.2010  134.0302  156.3545 C.3     1  UNL1        0.0020
     28 C         142.7190  132.7440  155.7516 C.3     1  UNL1        0.0044
     29 C         142.1155  132.7391  154.3784 C.3     1  UNL1        0.0223
     30 C         141.9940  134.0205  153.6079 C.3     1  UNL1        0.0044
     31 C         142.4760  135.3067  154.2108 C.3     1  UNL1        0.0020
     32 C         141.6335  131.4530  153.7755 C.ar    1  UNL1       -0.0225
     33 C         140.4026  130.7867  154.3149 C.ar    1  UNL1       -0.0034
     34 C         139.9206  129.5005  153.7120 C.ar    1  UNL1        0.0111
     35 C         140.6696  128.8806  152.5697 C.ar    1  UNL1        0.0577
     36 CL        140.1876  127.5945  151.9669 Cl      1  UNL1       -0.0822
     37 C         141.9005  129.5469  152.0304 C.ar    1  UNL1        0.0111
     38 C         142.3825  130.8330  152.6332 C.ar    1  UNL1       -0.0034
@<TRIPOS>BOND
     1    16    17    1
     2    17    18    1
     3    17     7    1
     4     7     8   ar
     5     8     9   ar
     6     9    19    1
     7    19    20    3
     8     9    10   ar
     9    10    11   ar
    10    11    12   ar
    11    12    13   ar
    12    13     1    1
    13     1     2   ar
    14     2     3   ar
    15     3     4   ar
    16     4    21    1
    17    21    22    2
    18    21    23   am
    19    23    25    1
    20    26    25    1
    21    26    27    1
    22    27    28    1
    23    28    29    1
    24    29    32    1
    25    32    33   ar
    26    33    34   ar
    27    34    35   ar
    28    35    36    1
    29    35    37   ar
    30    37    38   ar
    31    29    30    1
    32    30    31    1
    33     4     5   ar
    34     5     6   ar
    35    13    14   ar
    36    14    15   ar
    37    15     7   ar
    38    15    11   ar
    39     6     1   ar
    40    31    26    1
    41    38    32   ar
    42    23    24    1
@<TRIPOS>MOLECULE
*****
 38 42 0 0 0
SMALL
GASTEIGER

@<TRIPOS>ATOM
      1 C         140.9276  142.9131  161.7761 C.ar    1  UNL1        0.0536
      2 C         140.0472  144.0640  161.3884 C.ar    1  UNL1        0.0048
      3 C         140.0331  144.5530  159.9704 C.ar    1  UNL1        0.0047
      4 C         140.8995  143.8912  158.9401 C.ar    1  UNL1        0.0534
      5 C         141.7799  142.7403  159.3278 C.ar    1  UNL1        0.0047
      6 C         141.7940  142.2513  160.7459 C.ar    1  UNL1        0.0048
      7 C         141.6137  139.9666  166.1558 C.ar    1  UNL1        0.0143
      8 C         141.3069  140.1838  167.6079 C.ar    1  UNL1        0.0091
      9 C         140.6690  141.4651  168.0562 C.ar    1  UNL1        0.0698
     10 C         140.3378  142.5294  167.0524 C.ar    1  UNL1        0.0326
     11 C         140.6445  142.3122  165.6002 C.ar    1  UNL1        0.1192
     12 N         140.4339  143.1733  164.3902 N.ar    1  UNL1       -0.2082
     13 C         140.9417  142.4241  163.1941 C.ar    1  UNL1        0.2296
     14 O         141.4662  141.0999  163.6648 O.2     1  UNL1       -0.4349
     15 C         141.2825  141.0308  165.1519 C.ar    1  UNL1        0.1607
     16 C         141.5297  137.7821  164.7518 C.3     1  UNL1        0.0048
     17 C         142.2516  138.6851  165.7075 C.3     1  UNL1        0.0254
     18 C         143.6116  138.3067  166.2149 C.3     1  UNL1        0.0048
     19 C         140.3622  141.6823  169.5084 C.1     1  UNL1        0.1005
     20 N         140.0555  141.8994  170.9606 N.1     1  UNL1       -0.1908
     21 C         140.8853  144.3802  157.5221 C.2     1  UNL1        0.2458
     22 O         142.1170  144.2587  156.6747 O.2     1  UNL1       -0.2701
     23 N         139.6396  144.9907  156.9517 N.am    1  UNL1       -0.3009
     24 H         138.8312  145.0704  157.5080 H       1  UNL1        0.1497
     25 C         139.6255  145.4797  155.5337 C.3     1  UNL1        0.0896
     26 C         139.6078  146.9522  155.2483 C.3     1  UNL1        0.0196
     27 C         138.8341  147.8794  156.1381 C.3     1  UNL1        0.0020
     28 C         138.8165  149.3519  155.8528 C.3     1  UNL1        0.0044
     29 C         139.5725  149.8972  154.6776 C.3     1  UNL1        0.0223
     30 C         140.3462  148.9700  153.7877 C.3     1  UNL1        0.0044
     31 C         140.3639  147.4975  154.0731 C.3     1  UNL1        0.0020
     32 C         139.5548  151.3697  154.3922 C.ar    1  UNL1       -0.0225
     33 C         140.7395  152.0222  153.7436 C.ar    1  UNL1       -0.0034
     34 C         140.7218  153.4947  153.4582 C.ar    1  UNL1        0.0111
     35 C         139.5194  154.3147  153.8215 C.ar    1  UNL1        0.0577
     36 CL        139.5017  155.7872  153.5361 Cl      1  UNL1       -0.0822
     37 C         138.3347  153.6621  154.4701 C.ar    1  UNL1        0.0111
     38 C         138.3524  152.1896  154.7555 C.ar    1  UNL1       -0.0034
@<TRIPOS>BOND
     1    16    17    1
     2    17    18    1
     3    17     7    1
     4     7     8   ar
     5     8     9   ar
     6     9    19    1
     7    19    20    3
     8     9    10   ar
     9    10    11   ar
    10    11    12   ar
    11    12    13   ar
    12    13     1    1
    13     1     2   ar
    14     2     3   ar
    15     3     4   ar
    16     4    21    1
    17    21    22    2
    18    21    23   am
    19    23    25    1
    20    26    25    1
    21    26    27    1
    22    27    28    1
    23    28    29    1
    24    29    32    1
    25    32    33   ar
    26    33    34   ar
    27    34    35   ar
    28    35    36    1
    29    35    37   ar
    30    37    38   ar
    31    29    30    1
    32    30    31    1
    33     4     5   ar
    34     5     6   ar
    35    13    14   ar
    36    14    15   ar
    37    15     7   ar
    38    15    11   ar
    39     6     1   ar
    40    31    26    1
    41    38    32   ar
    42    23    24    1
@<TRIPOS>MOLECULE
*****
 38 42 0 0 0
SMALL
GASTEIGER

@<TRIPOS>ATOM
      1 C         139.5614  141.5893  161.6253 C.ar    1  UNL1        0.0536
      2 C         139.5441  142.8390  160.7959 C.ar    1  UNL1        0.0048
      3 C         138.9438  142.8187  159.4214 C.ar    1  UNL1        0.0047
      4 C         138.3608  141.5487  158.8762 C.ar    1  UNL1        0.0534
      5 C         138.3780  140.2989  159.7056 C.ar    1  UNL1        0.0047
      6 C         138.9784  140.3193  161.0801 C.ar    1  UNL1        0.0048
      7 C         142.5915  140.6070  165.8900 C.ar    1  UNL1        0.0143
      8 C         142.6183  141.1501  167.2879 C.ar    1  UNL1        0.0091
      9 C         141.6322  142.2013  167.7031 C.ar    1  UNL1        0.0698
     10 C         140.6192  142.7095  166.7204 C.ar    1  UNL1        0.0326
     11 C         140.5924  142.1663  165.3224 C.ar    1  UNL1        0.1192
     12 N         139.7167  142.4719  164.1435 N.ar    1  UNL1       -0.2082
     13 C         140.1617  141.6095  162.9997 C.ar    1  UNL1        0.2296
     14 O         141.3123  140.7709  163.4717 O.2     1  UNL1       -0.4349
     15 C         141.5786  141.1150  164.9072 C.ar    1  UNL1        0.1607
     16 C         144.5052  139.8102  164.3237 C.3     1  UNL1        0.0048
     17 C         143.5776  139.5557  165.4748 C.3     1  UNL1        0.0254
     18 C         143.6363  138.2498  166.2107 C.3     1  UNL1        0.0048
     19 C         141.6590  142.7445  169.1011 C.1     1  UNL1        0.1005
     20 N         141.6858  143.2877  170.4990 N.1     1  UNL1       -0.1908
     21 C         137.7605  141.5284  157.5017 C.2     1  UNL1        0.2458
     22 O         137.5541  142.8126  156.7546 O.2     1  UNL1       -0.2701
     23 N         137.3666  140.2240  156.8745 N.am    1  UNL1       -0.3009
     24 H         137.5021  139.3812  157.3649 H       1  UNL1        0.1497
     25 C         136.7663  140.2038  155.5000 C.3     1  UNL1        0.0896
     26 C         135.3274  140.5796  155.3044 C.3     1  UNL1        0.0196
     27 C         134.3164  140.2535  156.3634 C.3     1  UNL1        0.0020
     28 C         132.8775  140.6294  156.1678 C.3     1  UNL1        0.0044
     29 C         132.4496  141.3314  154.9132 C.3     1  UNL1        0.0223
     30 C         133.4606  141.6575  153.8541 C.3     1  UNL1        0.0044
     31 C         134.8995  141.2816  154.0497 C.3     1  UNL1        0.0020
     32 C         131.0107  141.7072  154.7176 C.ar    1  UNL1       -0.0225
     33 C         130.5939  142.4682  153.4940 C.ar    1  UNL1       -0.0034
     34 C         129.1550  142.8441  153.2984 C.ar    1  UNL1        0.0111
     35 C         128.1328  142.4589  154.3265 C.ar    1  UNL1        0.0577
     36 CL        126.6939  142.8348  154.1309 Cl      1  UNL1       -0.0822
     37 C         128.5496  141.6979  155.5500 C.ar    1  UNL1        0.0111
     38 C         129.9885  141.3220  155.7456 C.ar    1  UNL1       -0.0034
@<TRIPOS>BOND
     1    16    17    1
     2    17    18    1
     3    17     7    1
     4     7     8   ar
     5     8     9   ar
     6     9    19    1
     7    19    20    3
     8     9    10   ar
     9    10    11   ar
    10    11    12   ar
    11    12    13   ar
    12    13     1    1
    13     1     2   ar
    14     2     3   ar
    15     3     4   ar
    16     4    21    1
    17    21    22    2
    18    21    23   am
    19    23    25    1
    20    26    25    1
    21    26    27    1
    22    27    28    1
    23    28    29    1
    24    29    32    1
    25    32    33   ar
    26    33    34   ar
    27    34    35   ar
    28    35    36    1
    29    35    37   ar
    30    37    38   ar
    31    29    30    1
    32    30    31    1
    33     4     5   ar
    34     5     6   ar
    35    13    14   ar
    36    14    15   ar
    37    15     7   ar
    38    15    11   ar
    39     6     1   ar
    40    31    26    1
    41    38    32   ar
    42    23    24    1
@<TRIPOS>MOLECULE
*****
 38 42 0 0 0
SMALL
GASTEIGER

@<TRIPOS>ATOM
      1 C         135.0134  140.2011  155.4602 C.ar    1  UNL1        0.0536
      2 C         135.4817  139.1397  154.5094 C.ar    1  UNL1        0.0048
      3 C         136.9403  138.8002  154.4235 C.ar    1  UNL1        0.0047
      4 C         137.9306  139.5221  155.2885 C.ar    1  UNL1        0.0534
      5 C         137.4623  140.5835  156.2394 C.ar    1  UNL1        0.0047
      6 C         136.0037  140.9230  156.3252 C.ar    1  UNL1        0.0048
      7 C         129.8104  140.1296  156.5815 C.ar    1  UNL1        0.0143
      8 C         128.6657  141.0374  156.2415 C.ar    1  UNL1        0.0091
      9 C         128.9027  142.2650  155.4128 C.ar    1  UNL1        0.0698
     10 C         130.2843  142.5848  154.9240 C.ar    1  UNL1        0.0326
     11 C         131.4290  141.6769  155.2640 C.ar    1  UNL1        0.1192
     12 N         132.8893  141.7334  154.9261 N.ar    1  UNL1       -0.2082
     13 C         133.5549  140.5407  155.5461 C.ar    1  UNL1        0.2296
     14 O         132.5059  139.7471  156.2671 O.2     1  UNL1       -0.4349
     15 C         131.1920  140.4493  156.0927 C.ar    1  UNL1        0.1607
     16 C         129.7068  137.5421  156.7915 C.3     1  UNL1        0.0048
     17 C         129.5734  138.9020  157.4103 C.3     1  UNL1        0.0254
     18 C         129.2030  139.0343  158.8579 C.3     1  UNL1        0.0048
     19 C         127.7580  143.1729  155.0728 C.1     1  UNL1        0.1005
     20 N         126.6133  144.0807  154.7328 N.1     1  UNL1       -0.1908
     21 C         139.3891  139.1825  155.2026 C.2     1  UNL1        0.2458
     22 O         140.3406  139.6935  156.2435 O.2     1  UNL1       -0.2701
     23 N         139.8961  138.3320  154.0758 N.am    1  UNL1       -0.3009
     24 H         139.2715  137.9967  153.3927 H       1  UNL1        0.1497
     25 C         141.3546  137.9925  153.9900 C.3     1  UNL1        0.0896
     26 C         141.8739  136.7450  154.6412 C.3     1  UNL1        0.0196
     27 C         143.2677  136.7122  155.1945 C.3     1  UNL1        0.0020
     28 C         143.7870  135.4647  155.8457 C.3     1  UNL1        0.0044
     29 C         142.9124  134.2499  155.9436 C.3     1  UNL1        0.0223
     30 C         141.5185  134.2827  155.3902 C.3     1  UNL1        0.0044
     31 C         140.9992  135.5302  154.7390 C.3     1  UNL1        0.0020
     32 C         143.4316  133.0024  156.5948 C.ar    1  UNL1       -0.0225
     33 C         144.6960  133.0475  157.4006 C.ar    1  UNL1       -0.0034
     34 C         145.2152  131.8000  158.0518 C.ar    1  UNL1        0.0111
     35 C         144.4701  130.5074  157.8972 C.ar    1  UNL1        0.0577
     36 CL        144.9893  129.2598  158.5484 Cl      1  UNL1       -0.0822
     37 C         143.2057  130.4623  157.0913 C.ar    1  UNL1        0.0111
     38 C         142.6865  131.7098  156.4401 C.ar    1  UNL1       -0.0034
@<TRIPOS>BOND
     1    16    17    1
     2    17    18    1
     3    17     7    1
     4     7     8   ar
     5     8     9   ar
     6     9    19    1
     7    19    20    3
     8     9    10   ar
     9    10    11   ar
    10    11    12   ar
    11    12    13   ar
    12    13     1    1
    13     1     2   ar
    14     2     3   ar
    15     3     4   ar
    16     4    21    1
    17    21    22    2
    18    21    23   am
    19    23    25    1
    20    26    25    1
    21    26    27    1
    22    27    28    1
    23    28    29    1
    24    29    32    1
    25    32    33   ar
    26    33    34   ar
    27    34    35   ar
    28    35    36    1
    29    35    37   ar
    30    37    38   ar
    31    29    30    1
    32    30    31    1
    33     4     5   ar
    34     5     6   ar
    35    13    14   ar
    36    14    15   ar
    37    15     7   ar
    38    15    11   ar
    39     6     1   ar
    40    31    26    1
    41    38    32   ar
    42    23    24    1
