@<TRIPOS>MOLECULE
*****
 31 35 0 0 0
SMALL
GASTEIGER

@<TRIPOS>ATOM
      1 C         141.5663  142.7399  162.1747 C.ar    1  UNL1       -0.0035
      2 C         140.5577  141.6626  162.4429 C.ar    1  UNL1        0.0757
      3 N         140.7896  141.1460  163.8319 N.ar    1  UNL1       -0.3052
      4 C         141.9416  141.9041  164.4221 C.ar    1  UNL1        0.0637
      5 C         142.6154  141.8246  165.7599 C.ar    1  UNL1        0.0175
      6 C         143.7693  142.7302  166.0733 C.ar    1  UNL1        0.0015
      7 C         144.2493  143.7154  165.0491 C.ar    1  UNL1        0.0001
      8 C         143.5754  143.7949  163.7114 C.ar    1  UNL1        0.0012
      9 C         142.4216  142.8892  163.3979 C.ar    1  UNL1        0.0136
     10 C         140.0070  140.0616  164.5115 C.ar    1  UNL1        0.0642
     11 C         140.2423  138.6257  164.1467 C.ar    1  UNL1        0.0198
     12 C         139.4597  137.5414  164.8262 C.ar    1  UNL1        0.0311
     13 C         138.4419  137.8929  165.8705 C.ar    1  UNL1        0.1402
     14 F         137.6593  136.8085  166.5500 F       1  UNL1       -0.2042
     15 C         138.2067  139.3287  166.2352 C.ar    1  UNL1        0.0311
     16 C         138.9892  140.4130  165.5557 C.ar    1  UNL1        0.0198
     17 N         141.9575  145.1087  158.3686 N.3     1  UNL1       -0.2712
     18 C         140.9862  145.5431  159.4258 C.3     1  UNL1        0.0725
     19 C         140.8558  144.7535  160.6945 C.3     1  UNL1        0.0218
     20 C         141.6967  143.5295  160.9060 C.3     1  UNL1        0.0266
     21 C         142.6680  143.0951  159.8488 C.3     1  UNL1        0.0218
     22 C         142.7984  143.8847  158.5801 C.3     1  UNL1        0.0725
     23 C         142.0880  145.8982  157.0999 C.3     1  UNL1        0.0939
     24 C         141.5470  145.3466  155.8142 C.3     1  UNL1        0.1123
     25 O         140.0435  148.0573  154.7940 O.2     1  UNL1       -0.2526
     26 C         139.3958  146.7248  155.0280 C.2     1  UNL1        0.3041
     27 N         137.9433  146.4042  154.8342 N.am    1  UNL1       -0.2870
     28 C         137.7367  144.9602  155.1834 C.3     1  UNL1        0.1124
     29 C         139.0615  144.3882  155.5930 C.3     1  UNL1        0.1162
     30 N         140.0868  145.4787  155.4970 N.am    1  UNL1       -0.2610
     31 H         137.2478  147.0316  154.5311 H       1  UNL1        0.1510
@<TRIPOS>BOND
     1    25    26    2
     2    26    27   am
     3    27    28    1
     4    28    29    1
     5    29    30    1
     6    30    24    1
     7    24    23    1
     8    23    17    1
     9    17    18    1
    10    18    19    1
    11    19    20    1
    12    20     1    1
    13     1     2   ar
    14     2     3   ar
    15     3    10    1
    16    10    11   ar
    17    11    12   ar
    18    12    13   ar
    19    13    14    1
    20    13    15   ar
    21    15    16   ar
    22     3     4   ar
    23     4     5   ar
    24     5     6   ar
    25     6     7   ar
    26     7     8   ar
    27     8     9   ar
    28    20    21    1
    29    21    22    1
    30    30    26   am
    31    22    17    1
    32     9     1   ar
    33    16    10   ar
    34     9     4   ar
    35    27    31    1
@<TRIPOS>MOLECULE
*****
 31 35 0 0 0
SMALL
GASTEIGER

@<TRIPOS>ATOM
      1 C         142.2208  139.9686  163.1159 C.ar    1  UNL1       -0.0035
      2 C         141.5623  139.4280  164.3505 C.ar    1  UNL1        0.0757
      3 N         141.9093  140.3332  165.4950 N.ar    1  UNL1       -0.3052
      4 C         142.7822  141.4333  164.9679 C.ar    1  UNL1        0.0637
      5 C         143.4266  142.6111  165.6368 C.ar    1  UNL1        0.0175
      6 C         144.2636  143.5635  164.8353 C.ar    1  UNL1        0.0015
      7 C         144.4561  143.3381  163.3649 C.ar    1  UNL1        0.0001
      8 C         143.8116  142.1603  162.6960 C.ar    1  UNL1        0.0012
      9 C         142.9747  141.2079  163.4975 C.ar    1  UNL1        0.0136
     10 C         141.4619  140.1676  166.9172 C.ar    1  UNL1        0.0642
     11 C         142.4502  139.7680  167.9726 C.ar    1  UNL1        0.0198
     12 C         142.0028  139.6024  169.3947 C.ar    1  UNL1        0.0311
     13 C         140.5672  139.8362  169.7615 C.ar    1  UNL1        0.1402
     14 F         140.1199  139.6705  171.1836 F       1  UNL1       -0.2042
     15 C         139.5790  140.2357  168.7061 C.ar    1  UNL1        0.0311
     16 C         140.0264  140.4014  167.2839 C.ar    1  UNL1        0.0198
     17 N         141.9771  138.1854  158.9914 N.3     1  UNL1       -0.2712
     18 C         141.0947  139.3403  159.3625 C.3     1  UNL1        0.0725
     19 C         141.1759  139.9347  160.7373 C.3     1  UNL1        0.0218
     20 C         142.1396  139.3742  161.7411 C.3     1  UNL1        0.0266
     21 C         143.0218  138.2194  161.3699 C.3     1  UNL1        0.0218
     22 C         142.9407  137.6250  159.9951 C.3     1  UNL1        0.0725
     23 C         141.8959  137.5911  157.6166 C.3     1  UNL1        0.0939
     24 C         142.9448  136.6234  157.1547 C.3     1  UNL1        0.1123
     25 O         144.1306  133.7364  158.1077 O.2     1  UNL1       -0.2526
     26 C         143.0879  133.9562  157.0521 C.2     1  UNL1        0.3041
     27 N         142.4071  132.8876  156.2492 N.am    1  UNL1       -0.2870
     28 C         141.4413  133.5541  155.3150 C.3     1  UNL1        0.1124
     29 C         141.5252  135.0347  155.5405 C.3     1  UNL1        0.1162
     30 N         142.5428  135.2832  156.6140 N.am    1  UNL1       -0.2610
     31 H         142.5662  131.9188  156.3226 H       1  UNL1        0.1510
@<TRIPOS>BOND
     1    25    26    2
     2    26    27   am
     3    27    28    1
     4    28    29    1
     5    29    30    1
     6    30    24    1
     7    24    23    1
     8    23    17    1
     9    17    18    1
    10    18    19    1
    11    19    20    1
    12    20     1    1
    13     1     2   ar
    14     2     3   ar
    15     3    10    1
    16    10    11   ar
    17    11    12   ar
    18    12    13   ar
    19    13    14    1
    20    13    15   ar
    21    15    16   ar
    22     3     4   ar
    23     4     5   ar
    24     5     6   ar
    25     6     7   ar
    26     7     8   ar
    27     8     9   ar
    28    20    21    1
    29    21    22    1
    30    30    26   am
    31    22    17    1
    32     9     1   ar
    33    16    10   ar
    34     9     4   ar
    35    27    31    1
@<TRIPOS>MOLECULE
*****
 31 35 0 0 0
SMALL
GASTEIGER

@<TRIPOS>ATOM
      1 C         140.7106  143.0382  163.5377 C.ar    1  UNL1       -0.0035
      2 C         141.4012  143.4569  164.8017 C.ar    1  UNL1        0.0757
      3 N         140.9525  142.5398  165.9007 N.ar    1  UNL1       -0.3052
      4 C         139.9846  141.5544  165.3158 C.ar    1  UNL1        0.0637
      5 C         139.2201  140.4164  165.9244 C.ar    1  UNL1        0.0175
      6 C         138.3060  139.5864  165.0726 C.ar    1  UNL1        0.0015
      7 C         138.1565  139.8944  163.6122 C.ar    1  UNL1        0.0001
      8 C         138.9211  141.0324  163.0036 C.ar    1  UNL1        0.0012
      9 C         139.8351  141.8624  163.8554 C.ar    1  UNL1        0.0136
     10 C         141.3942  142.5980  167.3330 C.ar    1  UNL1        0.0642
     11 C         142.7870  142.1841  167.7058 C.ar    1  UNL1        0.0198
     12 C         143.2286  142.2422  169.1381 C.ar    1  UNL1        0.0311
     13 C         142.2776  142.7142  170.1977 C.ar    1  UNL1        0.1402
     14 F         142.7192  142.7723  171.6300 F       1  UNL1       -0.2042
     15 C         140.8848  143.1280  169.8249 C.ar    1  UNL1        0.0311
     16 C         140.4432  143.0699  168.3925 C.ar    1  UNL1        0.0198
     17 N         141.1825  144.9704  159.5011 N.3     1  UNL1       -0.2712
     18 C         141.8455  143.6552  159.7851 C.3     1  UNL1        0.0725
     19 C         141.6882  143.0111  161.1307 C.3     1  UNL1        0.0218
     20 C         140.8679  143.6823  162.1922 C.3     1  UNL1        0.0266
     21 C         140.2049  144.9974  161.9081 C.3     1  UNL1        0.0218
     22 C         140.3622  145.6415  160.5625 C.3     1  UNL1        0.0725
     23 C         141.3397  145.6144  158.1555 C.3     1  UNL1        0.0939
     24 C         140.3623  145.3097  157.0593 C.3     1  UNL1        0.1123
     25 O         141.2980  145.5446  153.9419 O.2     1  UNL1       -0.2526
     26 C         140.3869  146.4933  154.6628 C.2     1  UNL1        0.3041
     27 N         139.7459  147.7166  154.0773 N.am    1  UNL1       -0.2870
     28 C         138.9197  148.3646  155.1484 C.3     1  UNL1        0.1124
     29 C         139.0500  147.5419  156.3958 C.3     1  UNL1        0.1162
     30 N         139.9568  146.3854  156.0957 N.am    1  UNL1       -0.2610
     31 H         139.8493  148.0377  153.1525 H       1  UNL1        0.1510
@<TRIPOS>BOND
     1    25    26    2
     2    26    27   am
     3    27    28    1
     4    28    29    1
     5    29    30    1
     6    30    24    1
     7    24    23    1
     8    23    17    1
     9    17    18    1
    10    18    19    1
    11    19    20    1
    12    20     1    1
    13     1     2   ar
    14     2     3   ar
    15     3    10    1
    16    10    11   ar
    17    11    12   ar
    18    12    13   ar
    19    13    14    1
    20    13    15   ar
    21    15    16   ar
    22     3     4   ar
    23     4     5   ar
    24     5     6   ar
    25     6     7   ar
    26     7     8   ar
    27     8     9   ar
    28    20    21    1
    29    21    22    1
    30    30    26   am
    31    22    17    1
    32     9     1   ar
    33    16    10   ar
    34     9     4   ar
    35    27    31    1
@<TRIPOS>MOLECULE
*****
 31 35 0 0 0
SMALL
GASTEIGER

@<TRIPOS>ATOM
      1 C         140.5786  140.7675  163.3255 C.ar    1  UNL1       -0.0035
      2 C         141.0962  140.2177  164.6215 C.ar    1  UNL1        0.0757
      3 N         140.7890  141.2116  165.7022 N.ar    1  UNL1       -0.3052
      4 C         140.0815  142.3756  165.0741 C.ar    1  UNL1        0.0637
      5 C         139.5389  143.6499  165.6499 C.ar    1  UNL1        0.0175
      6 C         138.8662  144.6498  164.7567 C.ar    1  UNL1        0.0015
      7 C         138.7362  144.3753  163.2878 C.ar    1  UNL1        0.0001
      8 C         139.2788  143.1010  162.7120 C.ar    1  UNL1        0.0012
      9 C         139.9515  142.1011  163.6051 C.ar    1  UNL1        0.0136
     10 C         141.1295  141.0669  167.1559 C.ar    1  UNL1        0.0642
     11 C         140.0644  140.6870  168.1415 C.ar    1  UNL1        0.0198
     12 C         140.4049  140.5423  169.5952 C.ar    1  UNL1        0.0311
     13 C         141.8104  140.7775  170.0633 C.ar    1  UNL1        0.1402
     14 F         142.1509  140.6328  171.5169 F       1  UNL1       -0.2042
     15 C         142.8754  141.1573  169.0777 C.ar    1  UNL1        0.0311
     16 C         142.5350  141.3020  167.6240 C.ar    1  UNL1        0.0198
     17 N         140.8581  138.7672  159.3041 N.3     1  UNL1       -0.2712
     18 C         141.9097  139.7493  159.7280 C.3     1  UNL1        0.0725
     19 C         141.8166  140.4160  161.0684 C.3     1  UNL1        0.0218
     20 C         140.6717  140.1007  161.9850 C.3     1  UNL1        0.0266
     21 C         139.6202  139.1187  161.5611 C.3     1  UNL1        0.0218
     22 C         139.7133  138.4520  160.2207 C.3     1  UNL1        0.0725
     23 C         140.9512  138.1005  157.9637 C.3     1  UNL1        0.0939
     24 C         142.1615  138.3120  157.1033 C.3     1  UNL1        0.1123
     25 O         145.0194  138.3799  155.5294 O.2     1  UNL1       -0.2526
     26 C         144.1653  137.1675  155.7542 C.2     1  UNL1        0.3041
     27 N         144.4749  135.7735  155.2951 N.am    1  UNL1       -0.2870
     28 C         143.3527  134.8807  155.7347 C.3     1  UNL1        0.1124
     29 C         142.3494  135.7230  156.4656 C.3     1  UNL1        0.1162
     30 N         142.8517  137.1362  156.4777 N.am    1  UNL1       -0.2610
     31 H         145.2743  135.4936  154.7933 H       1  UNL1        0.1510
@<TRIPOS>BOND
     1    25    26    2
     2    26    27   am
     3    27    28    1
     4    28    29    1
     5    29    30    1
     6    30    24    1
     7    24    23    1
     8    23    17    1
     9    17    18    1
    10    18    19    1
    11    19    20    1
    12    20     1    1
    13     1     2   ar
    14     2     3   ar
    15     3    10    1
    16    10    11   ar
    17    11    12   ar
    18    12    13   ar
    19    13    14    1
    20    13    15   ar
    21    15    16   ar
    22     3     4   ar
    23     4     5   ar
    24     5     6   ar
    25     6     7   ar
    26     7     8   ar
    27     8     9   ar
    28    20    21    1
    29    21    22    1
    30    30    26   am
    31    22    17    1
    32     9     1   ar
    33    16    10   ar
    34     9     4   ar
    35    27    31    1
@<TRIPOS>MOLECULE
*****
 31 35 0 0 0
SMALL
GASTEIGER

@<TRIPOS>ATOM
      1 C         141.5411  140.1443  164.3730 C.ar    1  UNL1       -0.0035
      2 C         142.2878  141.0143  165.3402 C.ar    1  UNL1        0.0757
      3 N         141.5549  140.9877  166.6487 N.ar    1  UNL1       -0.3052
      4 C         140.3553  140.1012  166.4901 C.ar    1  UNL1        0.0637
      5 C         139.2696  139.7014  167.4448 C.ar    1  UNL1        0.0175
      6 C         138.1754  138.7803  166.9929 C.ar    1  UNL1        0.0015
      7 C         138.1669  138.2590  165.5864 C.ar    1  UNL1        0.0001
      8 C         139.2526  138.6589  164.6318 C.ar    1  UNL1        0.0012
      9 C         140.3468  139.5800  165.0836 C.ar    1  UNL1        0.0136
     10 C         141.9519  141.7191  167.8966 C.ar    1  UNL1        0.0642
     11 C         143.3274  141.5375  168.4670 C.ar    1  UNL1        0.0198
     12 C         143.7244  142.2689  169.7150 C.ar    1  UNL1        0.0311
     13 C         142.7460  143.1819  170.3926 C.ar    1  UNL1        0.1402
     14 F         143.1430  143.9134  171.6406 F       1  UNL1       -0.2042
     15 C         141.3706  143.3635  169.8222 C.ar    1  UNL1        0.0311
     16 C         140.9736  142.6321  168.5743 C.ar    1  UNL1        0.0198
     17 N         142.6836  139.3640  160.0909 N.3     1  UNL1       -0.2712
     18 C         143.3667  138.6165  161.1975 C.3     1  UNL1        0.0725
     19 C         142.9859  138.8766  162.6249 C.3     1  UNL1        0.0218
     20 C         141.9219  139.8842  162.9456 C.3     1  UNL1        0.0266
     21 C         141.2389  140.6316  161.8390 C.3     1  UNL1        0.0218
     22 C         141.6197  140.3716  160.4116 C.3     1  UNL1        0.0725
     23 C         143.0644  139.1039  158.6635 C.3     1  UNL1        0.0939
     24 C         143.0356  140.2219  157.6639 C.3     1  UNL1        0.1123
     25 O         143.8273  142.8976  159.3560 O.2     1  UNL1       -0.2526
     26 C         144.6182  142.3003  158.2301 C.2     1  UNL1        0.3041
     27 N         145.9119  142.8279  157.6843 N.am    1  UNL1       -0.2870
     28 C         146.3475  141.9242  156.5692 C.3     1  UNL1        0.1124
     29 C         145.3231  140.8380  156.4259 C.3     1  UNL1        0.1162
     30 N         144.2543  141.0704  157.4523 N.am    1  UNL1       -0.2610
     31 H         146.3910  143.6271  158.0021 H       1  UNL1        0.1510
@<TRIPOS>BOND
     1    25    26    2
     2    26    27   am
     3    27    28    1
     4    28    29    1
     5    29    30    1
     6    30    24    1
     7    24    23    1
     8    23    17    1
     9    17    18    1
    10    18    19    1
    11    19    20    1
    12    20     1    1
    13     1     2   ar
    14     2     3   ar
    15     3    10    1
    16    10    11   ar
    17    11    12   ar
    18    12    13   ar
    19    13    14    1
    20    13    15   ar
    21    15    16   ar
    22     3     4   ar
    23     4     5   ar
    24     5     6   ar
    25     6     7   ar
    26     7     8   ar
    27     8     9   ar
    28    20    21    1
    29    21    22    1
    30    30    26   am
    31    22    17    1
    32     9     1   ar
    33    16    10   ar
    34     9     4   ar
    35    27    31    1
@<TRIPOS>MOLECULE
*****
 31 35 0 0 0
SMALL
GASTEIGER

@<TRIPOS>ATOM
      1 C         140.7042  141.5366  162.9221 C.ar    1  UNL1       -0.0035
      2 C         141.2730  142.3263  164.0635 C.ar    1  UNL1        0.0757
      3 N         141.0250  141.5580  165.3277 N.ar    1  UNL1       -0.3052
      4 C         140.3029  140.2935  164.9676 C.ar    1  UNL1        0.0637
      5 C         139.8003  139.1524  165.8014 C.ar    1  UNL1        0.0175
      6 C         139.0995  137.9981  165.1484 C.ar    1  UNL1        0.0015
      7 C         138.9013  137.9849  163.6616 C.ar    1  UNL1        0.0001
      8 C         139.4039  139.1260  162.8278 C.ar    1  UNL1        0.0012
      9 C         140.1047  140.2803  163.4808 C.ar    1  UNL1        0.0136
     10 C         141.4282  141.9800  166.7095 C.ar    1  UNL1        0.0642
     11 C         142.8605  141.8666  167.1404 C.ar    1  UNL1        0.0198
     12 C         143.2637  142.2887  168.5222 C.ar    1  UNL1        0.0311
     13 C         142.2347  142.8242  169.4731 C.ar    1  UNL1        0.1402
     14 F         142.6379  143.2462  170.8548 F       1  UNL1       -0.2042
     15 C         140.8024  142.9376  169.0422 C.ar    1  UNL1        0.0311
     16 C         140.3992  142.5155  167.6604 C.ar    1  UNL1        0.0198
     17 N         140.7827  142.7276  158.5832 N.3     1  UNL1       -0.2712
     18 C         139.8568  143.4244  159.5356 C.3     1  UNL1        0.0725
     19 C         139.8306  143.0274  160.9819 C.3     1  UNL1        0.0218
     20 C         140.7304  141.9336  161.4758 C.3     1  UNL1        0.0266
     21 C         141.6563  141.2368  160.5234 C.3     1  UNL1        0.0218
     22 C         141.6825  141.6337  159.0771 C.3     1  UNL1        0.0725
     23 C         140.8089  143.1245  157.1369 C.3     1  UNL1        0.0939
     24 C         139.5234  143.3061  156.3856 C.3     1  UNL1        0.1123
     25 O         136.6331  144.1382  155.1195 O.2     1  UNL1       -0.2526
     26 C         137.8216  145.0405  155.2718 C.2     1  UNL1        0.3041
     27 N         137.8902  146.4838  154.8689 N.am    1  UNL1       -0.2870
     28 C         139.2611  146.9933  155.2018 C.3     1  UNL1        0.1124
     29 C         140.0398  145.8649  155.8105 C.3     1  UNL1        0.1162
     30 N         139.1501  144.6581  155.8538 N.am    1  UNL1       -0.2610
     31 H         137.1631  147.0051  154.4580 H       1  UNL1        0.1510
@<TRIPOS>BOND
     1    25    26    2
     2    26    27   am
     3    27    28    1
     4    28    29    1
     5    29    30    1
     6    30    24    1
     7    24    23    1
     8    23    17    1
     9    17    18    1
    10    18    19    1
    11    19    20    1
    12    20     1    1
    13     1     2   ar
    14     2     3   ar
    15     3    10    1
    16    10    11   ar
    17    11    12   ar
    18    12    13   ar
    19    13    14    1
    20    13    15   ar
    21    15    16   ar
    22     3     4   ar
    23     4     5   ar
    24     5     6   ar
    25     6     7   ar
    26     7     8   ar
    27     8     9   ar
    28    20    21    1
    29    21    22    1
    30    30    26   am
    31    22    17    1
    32     9     1   ar
    33    16    10   ar
    34     9     4   ar
    35    27    31    1
@<TRIPOS>MOLECULE
*****
 31 35 0 0 0
SMALL
GASTEIGER

@<TRIPOS>ATOM
      1 C         142.3542  141.9283  163.1335 C.ar    1  UNL1       -0.0035
      2 C         142.9335  141.2420  164.3348 C.ar    1  UNL1        0.0757
      3 N         142.1901  141.7217  165.5461 N.ar    1  UNL1       -0.3052
      4 C         141.1513  142.7045  165.0934 C.ar    1  UNL1        0.0637
      5 C         140.1262  143.4996  165.8463 C.ar    1  UNL1        0.0175
      6 C         139.2025  144.4225  165.1080 C.ar    1  UNL1        0.0015
      7 C         139.3039  144.5502  163.6169 C.ar    1  UNL1        0.0001
      8 C         140.3290  143.7551  162.8640 C.ar    1  UNL1        0.0012
      9 C         141.2527  142.8322  163.6023 C.ar    1  UNL1        0.0136
     10 C         142.4413  141.2937  166.9616 C.ar    1  UNL1        0.0642
     11 C         142.1475  139.8841  167.3824 C.ar    1  UNL1        0.0198
     12 C         142.3988  139.4561  168.7979 C.ar    1  UNL1        0.0311
     13 C         142.9437  140.4376  169.7927 C.ar    1  UNL1        0.1402
     14 F         143.1949  140.0096  171.2083 F       1  UNL1       -0.2042
     15 C         143.2374  141.8471  169.3720 C.ar    1  UNL1        0.0311
     16 C         142.9862  142.2751  167.9565 C.ar    1  UNL1        0.0198
     17 N         143.6865  141.3732  158.8712 N.3     1  UNL1       -0.2712
     18 C         142.9548  140.2709  159.5779 C.3     1  UNL1        0.0725
     19 C         142.5107  140.4559  160.9986 C.3     1  UNL1        0.0218
     20 C         142.7983  141.7433  161.7128 C.3     1  UNL1        0.0266
     21 C         143.5300  142.8456  161.0061 C.3     1  UNL1        0.0218
     22 C         143.9741  142.6606  159.5853 C.3     1  UNL1        0.0725
     23 C         144.1307  141.1882  157.4505 C.3     1  UNL1        0.0939
     24 C         144.7655  142.3270  156.7088 C.3     1  UNL1        0.1123
     25 O         147.5252  143.2670  158.1749 O.2     1  UNL1       -0.2526
     26 C         147.4204  142.6134  156.8289 C.2     1  UNL1        0.3041
     27 N         148.5656  142.2771  155.9205 N.am    1  UNL1       -0.2870
     28 C         148.0050  141.6372  154.6852 C.3     1  UNL1        0.1124
     29 C         146.5132  141.5780  154.8301 C.3     1  UNL1        0.1162
     30 N         146.1519  142.1813  156.1550 N.am    1  UNL1       -0.2610
     31 H         149.5181  142.4466  156.1030 H       1  UNL1        0.1510
@<TRIPOS>BOND
     1    25    26    2
     2    26    27   am
     3    27    28    1
     4    28    29    1
     5    29    30    1
     6    30    24    1
     7    24    23    1
     8    23    17    1
     9    17    18    1
    10    18    19    1
    11    19    20    1
    12    20     1    1
    13     1     2   ar
    14     2     3   ar
    15     3    10    1
    16    10    11   ar
    17    11    12   ar
    18    12    13   ar
    19    13    14    1
    20    13    15   ar
    21    15    16   ar
    22     3     4   ar
    23     4     5   ar
    24     5     6   ar
    25     6     7   ar
    26     7     8   ar
    27     8     9   ar
    28    20    21    1
    29    21    22    1
    30    30    26   am
    31    22    17    1
    32     9     1   ar
    33    16    10   ar
    34     9     4   ar
    35    27    31    1
@<TRIPOS>MOLECULE
*****
 31 35 0 0 0
SMALL
GASTEIGER

@<TRIPOS>ATOM
      1 C         140.2444  141.7218  163.0915 C.ar    1  UNL1       -0.0035
      2 C         140.8450  142.5087  164.2184 C.ar    1  UNL1        0.0757
      3 N         140.8260  141.6477  165.4466 N.ar    1  UNL1       -0.3052
      4 C         140.2137  140.3287  165.0787 C.ar    1  UNL1        0.0637
      5 C         139.9370  139.0920  165.8810 C.ar    1  UNL1        0.0175
      6 C         139.3009  137.9010  165.2278 C.ar    1  UNL1        0.0015
      7 C         138.9414  137.9467  163.7722 C.ar    1  UNL1        0.0001
      8 C         139.2181  139.1835  162.9699 C.ar    1  UNL1        0.0012
      9 C         139.8542  140.3745  163.6231 C.ar    1  UNL1        0.0136
     10 C         141.3307  142.0374  166.8043 C.ar    1  UNL1        0.0642
     11 C         142.7805  141.8585  167.1453 C.ar    1  UNL1        0.0198
     12 C         143.2852  142.2482  168.5031 C.ar    1  UNL1        0.0311
     13 C         142.3402  142.8166  169.5198 C.ar    1  UNL1        0.1402
     14 F         142.8449  143.2062  170.8776 F       1  UNL1       -0.2042
     15 C         140.8905  142.9954  169.1789 C.ar    1  UNL1        0.0311
     16 C         140.3858  142.6058  167.8211 C.ar    1  UNL1        0.0198
     17 N         139.7074  143.1517  158.8586 N.3     1  UNL1       -0.2712
     18 C         141.0841  143.0414  159.4440 C.3     1  UNL1        0.0725
     19 C         141.2631  142.5647  160.8549 C.3     1  UNL1        0.0218
     20 C         140.0654  142.1984  161.6805 C.3     1  UNL1        0.0266
     21 C         138.6888  142.3088  161.0951 C.3     1  UNL1        0.0218
     22 C         138.5098  142.7854  159.6841 C.3     1  UNL1        0.0725
     23 C         139.5284  143.6284  157.4476 C.3     1  UNL1        0.0939
     24 C         139.2798  142.6393  156.3477 C.3     1  UNL1        0.1123
     25 O         138.2616  139.8462  157.6936 O.2     1  UNL1       -0.2526
     26 C         137.4528  140.7418  156.8026 C.2     1  UNL1        0.3041
     27 N         136.0341  140.5109  156.3739 N.am    1  UNL1       -0.2870
     28 C         135.6253  141.6519  155.4904 C.3     1  UNL1        0.1124
     29 C         136.7913  142.5881  155.3730 C.3     1  UNL1        0.1162
     30 N         137.9208  142.0257  156.1840 N.am    1  UNL1       -0.2610
     31 H         135.4703  139.7448  156.6279 H       1  UNL1        0.1510
@<TRIPOS>BOND
     1    25    26    2
     2    26    27   am
     3    27    28    1
     4    28    29    1
     5    29    30    1
     6    30    24    1
     7    24    23    1
     8    23    17    1
     9    17    18    1
    10    18    19    1
    11    19    20    1
    12    20     1    1
    13     1     2   ar
    14     2     3   ar
    15     3    10    1
    16    10    11   ar
    17    11    12   ar
    18    12    13   ar
    19    13    14    1
    20    13    15   ar
    21    15    16   ar
    22     3     4   ar
    23     4     5   ar
    24     5     6   ar
    25     6     7   ar
    26     7     8   ar
    27     8     9   ar
    28    20    21    1
    29    21    22    1
    30    30    26   am
    31    22    17    1
    32     9     1   ar
    33    16    10   ar
    34     9     4   ar
    35    27    31    1
@<TRIPOS>MOLECULE
*****
 31 35 0 0 0
SMALL
GASTEIGER

@<TRIPOS>ATOM
      1 C         142.2614  139.6063  162.3884 C.ar    1  UNL1       -0.0035
      2 C         141.4498  139.2774  163.6063 C.ar    1  UNL1        0.0757
      3 N         142.0538  139.9988  164.7745 N.ar    1  UNL1       -0.3052
      4 C         143.2386  140.7736  164.2787 C.ar    1  UNL1        0.0637
      5 C         144.2172  141.6686  164.9795 C.ar    1  UNL1        0.0175
      6 C         145.3241  142.3211  164.2056 C.ar    1  UNL1        0.0015
      7 C         145.4524  142.0786  162.7310 C.ar    1  UNL1        0.0001
      8 C         144.4738  141.1836  162.0301 C.ar    1  UNL1        0.0012
      9 C         143.3669  140.5311  162.8040 C.ar    1  UNL1        0.0136
     10 C         141.5597  139.9533  166.1901 C.ar    1  UNL1        0.0642
     11 C         142.5239  139.7122  167.3136 C.ar    1  UNL1        0.0198
     12 C         142.0298  139.6667  168.7292 C.ar    1  UNL1        0.0311
     13 C         140.5715  139.8625  169.0212 C.ar    1  UNL1        0.1402
     14 F         140.0774  139.8170  170.4368 F       1  UNL1       -0.2042
     15 C         139.6074  140.1036  167.8977 C.ar    1  UNL1        0.0311
     16 C         140.1015  140.1491  166.4822 C.ar    1  UNL1        0.0198
     17 N         141.5113  138.0860  158.2199 N.3     1  UNL1       -0.2712
     18 C         142.7455  137.6648  158.9611 C.3     1  UNL1        0.0725
     19 C         142.9956  138.1716  160.3506 C.3     1  UNL1        0.0218
     20 C         142.0113  139.0996  160.9990 C.3     1  UNL1        0.0266
     21 C         140.7772  139.5207  160.2578 C.3     1  UNL1        0.0218
     22 C         140.5272  139.0139  158.8683 C.3     1  UNL1        0.0725
     23 C         141.2613  137.5793  156.8304 C.3     1  UNL1        0.0939
     24 C         141.8283  138.3127  155.6512 C.3     1  UNL1        0.1123
     25 O         144.7886  136.9454  155.5237 O.2     1  UNL1       -0.2526
     26 C         144.4989  138.4045  155.7165 C.2     1  UNL1        0.3041
     27 N         145.5191  139.4913  155.8846 N.am    1  UNL1       -0.2870
     28 C         144.7889  140.7913  156.0471 C.3     1  UNL1        0.1124
     29 C         143.3174  140.5081  155.9794 C.3     1  UNL1        0.1162
     30 N         143.1382  139.0330  155.7752 N.am    1  UNL1       -0.2610
     31 H         146.4963  139.3721  155.8877 H       1  UNL1        0.1510
@<TRIPOS>BOND
     1    25    26    2
     2    26    27   am
     3    27    28    1
     4    28    29    1
     5    29    30    1
     6    30    24    1
     7    24    23    1
     8    23    17    1
     9    17    18    1
    10    18    19    1
    11    19    20    1
    12    20     1    1
    13     1     2   ar
    14     2     3   ar
    15     3    10    1
    16    10    11   ar
    17    11    12   ar
    18    12    13   ar
    19    13    14    1
    20    13    15   ar
    21    15    16   ar
    22     3     4   ar
    23     4     5   ar
    24     5     6   ar
    25     6     7   ar
    26     7     8   ar
    27     8     9   ar
    28    20    21    1
    29    21    22    1
    30    30    26   am
    31    22    17    1
    32     9     1   ar
    33    16    10   ar
    34     9     4   ar
    35    27    31    1
