@<TRIPOS>MOLECULE
*****
 33 35 0 0 0
SMALL
GASTEIGER

@<TRIPOS>ATOM
      1 C         140.6120  140.1565  167.2886 C.ar    1  UNL1        0.0531
      2 C         140.8583  140.0903  165.8104 C.ar    1  UNL1        0.0167
      3 C         139.7878  139.5762  164.8941 C.ar    1  UNL1        0.0505
      4 C         138.4710  139.1284  165.4557 C.ar    1  UNL1        0.0170
      5 C         138.2247  139.1947  166.9339 C.ar    1  UNL1        0.0307
      6 C         139.2952  139.7087  167.8503 C.ar    1  UNL1        0.1402
      7 F         139.0489  139.7750  169.3285 F       1  UNL1       -0.2044
      8 N         139.9785  144.0798  169.3112 N.pl3   1  UNL1       -0.2456
      9 C         140.9757  142.9650  169.1980 C.2     1  UNL1        0.3505
     10 N         140.6853  141.7853  168.3182 N.2     1  UNL1       -0.0663
     11 C         141.6825  140.6706  168.2050 C.3     1  UNL1        0.2279
     12 C         142.9702  140.7355  168.9716 C.3     1  UNL1        0.0626
     13 C         143.2606  141.9151  169.8513 C.3     1  UNL1        0.0838
     14 C         142.2634  143.0299  169.9645 C.3     1  UNL1        0.3553
     15 F         143.3339  143.5439  170.8809 F       1  UNL1       -0.1914
     16 F         141.6380  144.3232  170.3960 F       1  UNL1       -0.1914
     17 H         139.1333  144.0372  168.8080 H       1  UNL1        0.2883
     18 H         140.1691  144.8540  169.8886 H       1  UNL1        0.2883
     19 C         142.3079  139.3772  167.7735 C.3     1  UNL1        0.2460
     20 F         142.9837  138.4974  168.7831 F       1  UNL1       -0.2293
     21 N         140.0342  139.5099  163.4159 N.am    1  UNL1       -0.2791
     22 C         140.7236  138.3169  162.8231 C.2     1  UNL1        0.2688
     23 O         141.1667  137.1901  163.7085 O.2     1  UNL1       -0.2681
     24 H         139.7433  140.2495  162.8347 H       1  UNL1        0.1552
     25 C         140.9699  138.2507  161.3450 C.ar    1  UNL1        0.1541
     26 C         139.8341  138.4503  160.3857 C.ar    1  UNL1        0.1258
     27 N         140.0804  138.3840  158.9075 N.ar    1  UNL1       -0.2070
     28 C         141.4625  138.1182  158.3887 C.ar    1  UNL1        0.2469
     29 C         142.5983  137.9185  159.3479 C.ar    1  UNL1        0.1566
     30 N         142.3520  137.9848  160.8261 N.ar    1  UNL1       -0.2328
     31 O         141.7088  138.0519  156.9105 O.3     1  UNL1       -0.4265
     32 C         141.6323  136.7354  156.1957 C.3     1  UNL1        0.4044
     33 F         142.2239  135.5069  156.8210 F       1  UNL1       -0.1809
@<TRIPOS>BOND
     1     8     9    1
     2     9    10    2
     3    10    11    1
     4    11    19    1
     5    19    20    1
     6    11     1    1
     7     1     2   ar
     8     2     3   ar
     9     3    21    1
    10    21    22   am
    11    22    23    2
    12    22    25    1
    13    25    26   ar
    14    26    27   ar
    15    27    28   ar
    16    28    31    1
    17    31    32    1
    18    32    33    1
    19    28    29   ar
    20    29    30   ar
    21     3     4   ar
    22     4     5   ar
    23     5     6   ar
    24     6     7    1
    25    11    12    1
    26    12    13    1
    27    13    14    1
    28    14    15    1
    29    14    16    1
    30    14     9    1
    31     6     1   ar
    32    30    25   ar
    33     8    17    1
    34     8    18    1
    35    21    24    1
@<TRIPOS>MOLECULE
*****
 33 35 0 0 0
SMALL
GASTEIGER

@<TRIPOS>ATOM
      1 C         140.3095  139.9738  166.4051 C.ar    1  UNL1        0.0531
      2 C         140.8622  139.5646  165.0720 C.ar    1  UNL1        0.0167
      3 C         140.1469  138.5358  164.2474 C.ar    1  UNL1        0.0505
      4 C         138.8789  137.9163  164.7557 C.ar    1  UNL1        0.0170
      5 C         138.3262  138.3255  166.0888 C.ar    1  UNL1        0.0307
      6 C         139.0415  139.3542  166.9135 C.ar    1  UNL1        0.1402
      7 F         138.4888  139.7634  168.2466 F       1  UNL1       -0.2044
      8 N         142.9562  138.5840  169.7138 N.pl3   1  UNL1       -0.2456
      9 C         142.4652  139.8367  169.0508 C.2     1  UNL1        0.3505
     10 N         141.5157  139.7498  167.8928 N.2     1  UNL1       -0.0663
     11 C         141.0248  141.0025  167.2298 C.3     1  UNL1        0.2279
     12 C         141.4833  142.3422  167.7247 C.3     1  UNL1        0.0626
     13 C         142.4328  142.4291  168.8826 C.3     1  UNL1        0.0838
     14 C         142.9237  141.1764  169.5457 C.3     1  UNL1        0.3553
     15 F         143.6390  142.2051  170.3703 F       1  UNL1       -0.1914
     16 F         143.6631  140.2810  170.4951 F       1  UNL1       -0.1914
     17 H         142.6552  137.7047  169.3890 H       1  UNL1        0.2883
     18 H         143.5794  138.6411  170.4738 H       1  UNL1        0.2883
     19 C         140.2854  141.8979  166.2803 C.3     1  UNL1        0.2460
     20 F         139.9245  143.2941  166.6932 F       1  UNL1       -0.2293
     21 N         140.6995  138.1266  162.9142 N.am    1  UNL1       -0.2791
     22 C         140.4220  138.9611  161.6991 C.2     1  UNL1        0.2688
     23 O         139.5917  140.2048  161.8170 O.2     1  UNL1       -0.2681
     24 H         141.2445  137.3104  162.8368 H       1  UNL1        0.1552
     25 C         140.9747  138.5519  160.3660 C.ar    1  UNL1        0.1541
     26 C         142.4130  138.1443  160.2436 C.ar    1  UNL1        0.1258
     27 N         142.9657  137.7351  158.9105 N.ar    1  UNL1       -0.2070
     28 C         142.0800  137.7335  157.6999 C.ar    1  UNL1        0.2469
     29 C         140.6416  138.1411  157.8223 C.ar    1  UNL1        0.1566
     30 N         140.0889  138.5503  159.1554 N.ar    1  UNL1       -0.2328
     31 O         142.6327  137.3243  156.3668 O.3     1  UNL1       -0.4265
     32 C         143.5108  136.1131  156.2587 C.3     1  UNL1        0.4044
     33 F         144.6689  136.1089  155.3053 F       1  UNL1       -0.1809
@<TRIPOS>BOND
     1     8     9    1
     2     9    10    2
     3    10    11    1
     4    11    19    1
     5    19    20    1
     6    11     1    1
     7     1     2   ar
     8     2     3   ar
     9     3    21    1
    10    21    22   am
    11    22    23    2
    12    22    25    1
    13    25    26   ar
    14    26    27   ar
    15    27    28   ar
    16    28    31    1
    17    31    32    1
    18    32    33    1
    19    28    29   ar
    20    29    30   ar
    21     3     4   ar
    22     4     5   ar
    23     5     6   ar
    24     6     7    1
    25    11    12    1
    26    12    13    1
    27    13    14    1
    28    14    15    1
    29    14    16    1
    30    14     9    1
    31     6     1   ar
    32    30    25   ar
    33     8    17    1
    34     8    18    1
    35    21    24    1
@<TRIPOS>MOLECULE
*****
 33 35 0 0 0
SMALL
GASTEIGER

@<TRIPOS>ATOM
      1 C         140.4357  140.3342  167.3503 C.ar    1  UNL1        0.0531
      2 C         140.4174  140.4293  165.8534 C.ar    1  UNL1        0.0167
      3 C         139.2349  139.9196  165.0840 C.ar    1  UNL1        0.0505
      4 C         138.0708  139.3148  165.8113 C.ar    1  UNL1        0.0170
      5 C         138.0892  139.2197  167.3083 C.ar    1  UNL1        0.0307
      6 C         139.2716  139.7294  168.0777 C.ar    1  UNL1        0.1402
      7 F         139.2900  139.6343  169.5746 F       1  UNL1       -0.2044
      8 N         139.9802  144.0896  169.7111 N.pl3   1  UNL1       -0.2456
      9 C         140.9896  143.0351  169.3663 C.2     1  UNL1        0.3505
     10 N         140.6087  141.8985  168.4646 N.2     1  UNL1       -0.0663
     11 C         141.6182  140.8439  168.1197 C.3     1  UNL1        0.2279
     12 C         143.0085  140.9259  168.6766 C.3     1  UNL1        0.0626
     13 C         143.3894  142.0625  169.5782 C.3     1  UNL1        0.0838
     14 C         142.3800  143.1171  169.9231 C.3     1  UNL1        0.3553
     15 F         143.5624  143.6268  170.6925 F       1  UNL1       -0.1914
     16 F         141.7813  144.3487  170.5352 F       1  UNL1       -0.1914
     17 H         139.0676  144.0358  169.3456 H       1  UNL1        0.2883
     18 H         140.2302  144.8356  170.3029 H       1  UNL1        0.2883
     19 C         142.2169  139.6123  167.5076 C.3     1  UNL1        0.2460
     20 F         142.8710  138.5829  168.3809 F       1  UNL1       -0.2293
     21 N         139.2166  140.0147  163.5871 N.am    1  UNL1       -0.2791
     22 C         138.2782  140.9674  162.9076 C.2     1  UNL1        0.2688
     23 O         137.3582  141.8250  163.7249 O.2     1  UNL1       -0.2681
     24 H         139.8204  139.4518  163.0506 H       1  UNL1        0.1552
     25 C         138.2599  141.0625  161.4106 C.ar    1  UNL1        0.1541
     26 C         137.9717  139.8436  160.5853 C.ar    1  UNL1        0.1258
     27 N         137.9533  139.9387  159.0883 N.ar    1  UNL1       -0.2070
     28 C         138.2232  141.2526  158.4170 C.ar    1  UNL1        0.2469
     29 C         138.5114  142.4715  159.2424 C.ar    1  UNL1        0.1566
     30 N         138.5297  142.3764  160.7393 N.ar    1  UNL1       -0.2328
     31 O         138.2048  141.3477  156.9201 O.3     1  UNL1       -0.4265
     32 C         136.9943  140.9015  156.1550 C.3     1  UNL1        0.4044
     33 F         135.6347  140.9938  156.7819 F       1  UNL1       -0.1809
@<TRIPOS>BOND
     1     8     9    1
     2     9    10    2
     3    10    11    1
     4    11    19    1
     5    19    20    1
     6    11     1    1
     7     1     2   ar
     8     2     3   ar
     9     3    21    1
    10    21    22   am
    11    22    23    2
    12    22    25    1
    13    25    26   ar
    14    26    27   ar
    15    27    28   ar
    16    28    31    1
    17    31    32    1
    18    32    33    1
    19    28    29   ar
    20    29    30   ar
    21     3     4   ar
    22     4     5   ar
    23     5     6   ar
    24     6     7    1
    25    11    12    1
    26    12    13    1
    27    13    14    1
    28    14    15    1
    29    14    16    1
    30    14     9    1
    31     6     1   ar
    32    30    25   ar
    33     8    17    1
    34     8    18    1
    35    21    24    1
@<TRIPOS>MOLECULE
*****
 33 35 0 0 0
SMALL
GASTEIGER

@<TRIPOS>ATOM
      1 C         142.4922  140.5222  166.6711 C.ar    1  UNL1        0.0531
      2 C         142.9293  140.9550  165.3029 C.ar    1  UNL1        0.0167
      3 C         143.7841  140.0490  164.4672 C.ar    1  UNL1        0.0505
      4 C         144.2020  138.7104  164.9995 C.ar    1  UNL1        0.0170
      5 C         143.7650  138.2776  166.3676 C.ar    1  UNL1        0.0307
      6 C         142.9101  139.1835  167.2034 C.ar    1  UNL1        0.1402
      7 F         142.4731  138.7508  168.5715 F       1  UNL1       -0.2044
      8 N         144.4058  142.7652  170.0164 N.pl3   1  UNL1       -0.2456
      9 C         143.0788  142.5615  169.3474 C.2     1  UNL1        0.3505
     10 N         142.9644  141.6318  168.1758 N.2     1  UNL1       -0.0663
     11 C         141.6374  141.4281  167.5068 C.3     1  UNL1        0.2279
     12 C         140.4248  142.1540  168.0094 C.3     1  UNL1        0.0626
     13 C         140.5392  143.0836  169.1810 C.3     1  UNL1        0.0838
     14 C         141.8662  143.2873  169.8500 C.3     1  UNL1        0.3553
     15 F         141.0113  144.1933  170.6858 F       1  UNL1       -0.1914
     16 F         142.8962  143.8057  170.8093 F       1  UNL1       -0.1914
     17 H         145.2017  142.2888  169.6865 H       1  UNL1        0.2883
     18 H         144.4809  143.3753  170.7854 H       1  UNL1        0.2883
     19 C         140.6073  140.9097  166.5476 C.3     1  UNL1        0.2460
     20 F         139.6258  139.8663  166.9927 F       1  UNL1       -0.2293
     21 N         144.2212  140.4818  163.0991 N.am    1  UNL1       -0.2791
     22 C         143.3687  140.1685  161.9053 C.2     1  UNL1        0.2688
     23 O         142.0791  139.4225  162.0797 O.2     1  UNL1       -0.2681
     24 H         145.0676  140.9715  162.9846 H       1  UNL1        0.1552
     25 C         143.8057  140.6013  160.5372 C.ar    1  UNL1        0.1541
     26 C         143.7543  139.6335  159.3924 C.ar    1  UNL1        0.1258
     27 N         144.1913  140.0662  158.0242 N.ar    1  UNL1       -0.2070
     28 C         144.6797  141.4668  157.8010 C.ar    1  UNL1        0.2469
     29 C         144.7312  142.4347  158.9458 C.ar    1  UNL1        0.1566
     30 N         144.2941  142.0019  160.3140 N.ar    1  UNL1       -0.2328
     31 O         145.1168  141.8996  156.4329 O.3     1  UNL1       -0.4265
     32 C         146.5683  141.8488  156.0582 C.3     1  UNL1        0.4044
     33 F         147.5874  142.5474  156.9087 F       1  UNL1       -0.1809
@<TRIPOS>BOND
     1     8     9    1
     2     9    10    2
     3    10    11    1
     4    11    19    1
     5    19    20    1
     6    11     1    1
     7     1     2   ar
     8     2     3   ar
     9     3    21    1
    10    21    22   am
    11    22    23    2
    12    22    25    1
    13    25    26   ar
    14    26    27   ar
    15    27    28   ar
    16    28    31    1
    17    31    32    1
    18    32    33    1
    19    28    29   ar
    20    29    30   ar
    21     3     4   ar
    22     4     5   ar
    23     5     6   ar
    24     6     7    1
    25    11    12    1
    26    12    13    1
    27    13    14    1
    28    14    15    1
    29    14    16    1
    30    14     9    1
    31     6     1   ar
    32    30    25   ar
    33     8    17    1
    34     8    18    1
    35    21    24    1
@<TRIPOS>MOLECULE
*****
 33 35 0 0 0
SMALL
GASTEIGER

@<TRIPOS>ATOM
      1 C         140.4603  140.6869  166.4033 C.ar    1  UNL1        0.0531
      2 C         140.6419  141.2494  165.0245 C.ar    1  UNL1        0.0167
      3 C         139.5823  141.0399  163.9836 C.ar    1  UNL1        0.0505
      4 C         138.3413  140.2680  164.3213 C.ar    1  UNL1        0.0170
      5 C         138.1598  139.7056  165.7000 C.ar    1  UNL1        0.0307
      6 C         139.2193  139.9150  166.7409 C.ar    1  UNL1        0.1402
      7 F         139.0378  139.3526  168.1196 F       1  UNL1       -0.2044
      8 N         140.0341  144.1241  169.2119 N.pl3   1  UNL1       -0.2456
      9 C         140.9454  142.9768  168.8906 C.2     1  UNL1        0.3505
     10 N         140.6086  142.0437  167.7655 N.2     1  UNL1       -0.0663
     11 C         141.5199  140.8964  167.4442 C.3     1  UNL1        0.2279
     12 C         142.7680  140.6822  168.2479 C.3     1  UNL1        0.0626
     13 C         143.1049  141.6153  169.3730 C.3     1  UNL1        0.0838
     14 C         142.1936  142.7626  169.6943 C.3     1  UNL1        0.3553
     15 F         143.2531  142.9720  170.7352 F       1  UNL1       -0.1914
     16 F         141.6503  143.9826  170.3772 F       1  UNL1       -0.1914
     17 H         139.2149  144.2647  168.6843 H       1  UNL1        0.2883
     18 H         140.2552  144.7365  169.9503 H       1  UNL1        0.2883
     19 C         142.0631  139.6764  166.7613 C.3     1  UNL1        0.2460
     20 F         143.1081  138.8403  167.4390 F       1  UNL1       -0.2293
     21 N         139.7638  141.6023  162.6049 N.am    1  UNL1       -0.2791
     22 C         139.5241  143.0613  162.3526 C.2     1  UNL1        0.2688
     23 O         139.1029  143.9580  163.4789 O.2     1  UNL1       -0.2681
     24 H         140.0403  141.0138  161.8657 H       1  UNL1        0.1552
     25 C         139.7056  143.6238  160.9739 C.ar    1  UNL1        0.1541
     26 C         140.5513  144.8454  160.7676 C.ar    1  UNL1        0.1258
     27 N         140.7328  145.4078  159.3889 N.ar    1  UNL1       -0.2070
     28 C         140.0686  144.7486  158.2166 C.ar    1  UNL1        0.2469
     29 C         139.2230  143.5270  158.4228 C.ar    1  UNL1        0.1566
     30 N         139.0415  142.9646  159.8015 N.ar    1  UNL1       -0.2328
     31 O         140.2502  145.3111  156.8379 O.3     1  UNL1       -0.4265
     32 C         139.6891  146.6601  156.4984 C.3     1  UNL1        0.4044
     33 F         138.3987  146.7668  155.7410 F       1  UNL1       -0.1809
@<TRIPOS>BOND
     1     8     9    1
     2     9    10    2
     3    10    11    1
     4    11    19    1
     5    19    20    1
     6    11     1    1
     7     1     2   ar
     8     2     3   ar
     9     3    21    1
    10    21    22   am
    11    22    23    2
    12    22    25    1
    13    25    26   ar
    14    26    27   ar
    15    27    28   ar
    16    28    31    1
    17    31    32    1
    18    32    33    1
    19    28    29   ar
    20    29    30   ar
    21     3     4   ar
    22     4     5   ar
    23     5     6   ar
    24     6     7    1
    25    11    12    1
    26    12    13    1
    27    13    14    1
    28    14    15    1
    29    14    16    1
    30    14     9    1
    31     6     1   ar
    32    30    25   ar
    33     8    17    1
    34     8    18    1
    35    21    24    1
@<TRIPOS>MOLECULE
*****
 33 35 0 0 0
SMALL
GASTEIGER

@<TRIPOS>ATOM
      1 C         139.4402  139.2287  164.6766 C.ar    1  UNL1        0.0531
      2 C         139.7942  140.2466  163.6331 C.ar    1  UNL1        0.0167
      3 C         139.5795  139.9378  162.1810 C.ar    1  UNL1        0.0505
      4 C         139.0109  138.6112  161.7723 C.ar    1  UNL1        0.0170
      5 C         138.6570  137.5934  162.8158 C.ar    1  UNL1        0.0307
      6 C         138.8716  137.9022  164.2679 C.ar    1  UNL1        0.1402
      7 F         138.5177  136.8844  165.3114 F       1  UNL1       -0.2044
      8 N         143.5604  138.8661  166.3429 N.pl3   1  UNL1       -0.2456
      9 C         142.1593  139.2216  166.7435 C.2     1  UNL1        0.3505
     10 N         141.0560  139.1821  165.7281 N.2     1  UNL1       -0.0663
     11 C         139.6549  139.5375  166.1287 C.3     1  UNL1        0.2279
     12 C         139.3570  139.9325  167.5447 C.3     1  UNL1        0.0626
     13 C         140.4603  139.9720  168.5601 C.3     1  UNL1        0.0838
     14 C         141.8614  139.6166  168.1595 C.3     1  UNL1        0.3553
     15 F         142.0761  139.9254  169.6116 F       1  UNL1       -0.1914
     16 F         143.3371  139.3684  168.2633 F       1  UNL1       -0.1914
     17 H         143.7559  138.6069  165.4134 H       1  UNL1        0.2883
     18 H         144.2845  138.8921  167.0093 H       1  UNL1        0.2883
     19 C         138.1792  139.7857  166.0249 C.3     1  UNL1        0.2460
     20 F         137.2286  139.0369  166.9114 F       1  UNL1       -0.2293
     21 N         139.9335  140.9556  161.1375 N.am    1  UNL1       -0.2791
     22 C         138.9983  142.0929  160.8515 C.2     1  UNL1        0.2688
     23 O         137.7091  142.2124  161.6088 O.2     1  UNL1       -0.2681
     24 H         140.7796  140.8771  160.6404 H       1  UNL1        0.1552
     25 C         139.3522  143.1107  159.8080 C.ar    1  UNL1        0.1541
     26 C         139.2261  142.7682  158.3531 C.ar    1  UNL1        0.1258
     27 N         139.5800  143.7860  157.3096 N.ar    1  UNL1       -0.2070
     28 C         140.0601  145.1462  157.7211 C.ar    1  UNL1        0.2469
     29 C         140.1863  145.4887  159.1760 C.ar    1  UNL1        0.1566
     30 N         139.8323  144.4709  160.2195 N.ar    1  UNL1       -0.2328
     31 O         140.4141  146.1640  156.6776 O.3     1  UNL1       -0.4265
     32 C         139.4037  147.1899  156.2573 C.3     1  UNL1        0.4044
     33 F         138.7001  148.0174  157.2919 F       1  UNL1       -0.1809
@<TRIPOS>BOND
     1     8     9    1
     2     9    10    2
     3    10    11    1
     4    11    19    1
     5    19    20    1
     6    11     1    1
     7     1     2   ar
     8     2     3   ar
     9     3    21    1
    10    21    22   am
    11    22    23    2
    12    22    25    1
    13    25    26   ar
    14    26    27   ar
    15    27    28   ar
    16    28    31    1
    17    31    32    1
    18    32    33    1
    19    28    29   ar
    20    29    30   ar
    21     3     4   ar
    22     4     5   ar
    23     5     6   ar
    24     6     7    1
    25    11    12    1
    26    12    13    1
    27    13    14    1
    28    14    15    1
    29    14    16    1
    30    14     9    1
    31     6     1   ar
    32    30    25   ar
    33     8    17    1
    34     8    18    1
    35    21    24    1
@<TRIPOS>MOLECULE
*****
 33 35 0 0 0
SMALL
GASTEIGER

@<TRIPOS>ATOM
      1 C         141.9653  140.4097  166.3290 C.ar    1  UNL1        0.0531
      2 C         141.4563  140.7489  164.9594 C.ar    1  UNL1        0.0167
      3 C         141.7416  139.8342  163.8054 C.ar    1  UNL1        0.0505
      4 C         142.5360  138.5802  164.0209 C.ar    1  UNL1        0.0170
      5 C         143.0451  138.2410  165.3905 C.ar    1  UNL1        0.0307
      6 C         142.7597  139.1557  166.5445 C.ar    1  UNL1        0.1402
      7 F         143.2688  138.8165  167.9141 F       1  UNL1       -0.2044
      8 N         138.4655  139.5110  168.9419 N.pl3   1  UNL1       -0.2456
      9 C         139.5827  140.4979  168.7745 C.2     1  UNL1        0.3505
     10 N         140.5628  140.3376  167.6505 N.2     1  UNL1       -0.0663
     11 C         141.6800  141.3245  167.4831 C.3     1  UNL1        0.2279
     12 C         141.8170  142.4716  168.4397 C.3     1  UNL1        0.0626
     13 C         140.8369  142.6319  169.5638 C.3     1  UNL1        0.0838
     14 C         139.7197  141.6450  169.7312 C.3     1  UNL1        0.3553
     15 F         139.4343  142.5598  170.8852 F       1  UNL1       -0.1914
     16 F         138.5034  140.9759  170.2994 F       1  UNL1       -0.1914
     17 H         138.3755  138.7581  168.3140 H       1  UNL1        0.2883
     18 H         137.8222  139.6162  169.6797 H       1  UNL1        0.2883
     19 C         142.8963  141.9936  166.9148 C.3     1  UNL1        0.2460
     20 F         143.8426  142.7240  167.8209 F       1  UNL1       -0.2293
     21 N         141.2326  140.1734  162.4358 N.am    1  UNL1       -0.2791
     22 C         139.9335  139.5981  161.9547 C.2     1  UNL1        0.2688
     23 O         139.1435  138.6835  162.8432 O.2     1  UNL1       -0.2681
     24 H         141.7511  140.7737  161.8526 H       1  UNL1        0.1552
     25 C         139.4245  139.9373  160.5851 C.ar    1  UNL1        0.1541
     26 C         139.4162  138.8932  159.5082 C.ar    1  UNL1        0.1258
     27 N         138.9072  139.2324  158.1386 N.ar    1  UNL1       -0.2070
     28 C         138.4064  140.6157  157.8460 C.ar    1  UNL1        0.2469
     29 C         138.4146  141.6599  158.9228 C.ar    1  UNL1        0.1566
     30 N         138.9237  141.3206  160.2925 N.ar    1  UNL1       -0.2328
     31 O         137.8973  140.9550  156.4763 O.3     1  UNL1       -0.4265
     32 C         136.4269  141.1441  156.2483 C.3     1  UNL1        0.4044
     33 F         135.9387  142.2907  155.4133 F       1  UNL1       -0.1809
@<TRIPOS>BOND
     1     8     9    1
     2     9    10    2
     3    10    11    1
     4    11    19    1
     5    19    20    1
     6    11     1    1
     7     1     2   ar
     8     2     3   ar
     9     3    21    1
    10    21    22   am
    11    22    23    2
    12    22    25    1
    13    25    26   ar
    14    26    27   ar
    15    27    28   ar
    16    28    31    1
    17    31    32    1
    18    32    33    1
    19    28    29   ar
    20    29    30   ar
    21     3     4   ar
    22     4     5   ar
    23     5     6   ar
    24     6     7    1
    25    11    12    1
    26    12    13    1
    27    13    14    1
    28    14    15    1
    29    14    16    1
    30    14     9    1
    31     6     1   ar
    32    30    25   ar
    33     8    17    1
    34     8    18    1
    35    21    24    1
@<TRIPOS>MOLECULE
*****
 33 35 0 0 0
SMALL
GASTEIGER

@<TRIPOS>ATOM
      1 C         141.9433  140.1353  166.4718 C.ar    1  UNL1        0.0531
      2 C         141.6282  140.8954  165.2176 C.ar    1  UNL1        0.0167
      3 C         142.3859  140.6071  163.9556 C.ar    1  UNL1        0.0505
      4 C         143.4587  139.5588  163.9476 C.ar    1  UNL1        0.0170
      5 C         143.7738  138.7987  165.2018 C.ar    1  UNL1        0.0307
      6 C         143.0161  139.0870  166.4639 C.ar    1  UNL1        0.1402
      7 F         143.3313  138.3269  167.7181 F       1  UNL1       -0.2044
      8 N         143.8709  142.6937  169.5739 N.pl3   1  UNL1       -0.2456
      9 C         142.6075  141.9335  169.2986 C.2     1  UNL1        0.3505
     10 N         142.4491  141.1838  168.0092 N.2     1  UNL1       -0.0663
     11 C         141.1856  140.4236  167.7339 C.3     1  UNL1        0.2279
     12 C         140.0806  140.4131  168.7481 C.3     1  UNL1        0.0626
     13 C         140.2389  141.1628  170.0376 C.3     1  UNL1        0.0838
     14 C         141.5024  141.9230  170.3129 C.3     1  UNL1        0.3553
     15 F         140.7447  142.2113  171.5749 F       1  UNL1       -0.1914
     16 F         142.5026  142.7833  171.0265 F       1  UNL1       -0.1914
     17 H         144.5962  142.7006  168.9083 H       1  UNL1        0.2883
     18 H         143.9749  143.1858  170.4203 H       1  UNL1        0.2883
     19 C         140.1854  139.5633  167.0202 C.3     1  UNL1        0.2460
     20 F         138.7480  139.5712  167.4491 F       1  UNL1       -0.2293
     21 N         142.0707  141.3672  162.7014 N.am    1  UNL1       -0.2791
     22 C         142.5993  142.7585  162.5147 C.2     1  UNL1        0.2688
     23 O         143.4431  143.3897  163.5822 O.2     1  UNL1       -0.2681
     24 H         141.5170  140.9529  162.0007 H       1  UNL1        0.1552
     25 C         142.2842  143.5186  161.2605 C.ar    1  UNL1        0.1541
     26 C         141.3203  144.6671  161.3018 C.ar    1  UNL1        0.1258
     27 N         141.0052  145.4272  160.0476 N.ar    1  UNL1       -0.2070
     28 C         141.6539  145.0387  158.7522 C.ar    1  UNL1        0.2469
     29 C         142.6178  143.8901  158.7109 C.ar    1  UNL1        0.1566
     30 N         142.9330  143.1300  159.9651 N.ar    1  UNL1       -0.2328
     31 O         141.3388  145.7988  157.4980 O.3     1  UNL1       -0.4265
     32 C         139.9121  145.9956  157.0787 C.3     1  UNL1        0.4044
     33 F         139.3265  147.3759  157.0359 F       1  UNL1       -0.1809
@<TRIPOS>BOND
     1     8     9    1
     2     9    10    2
     3    10    11    1
     4    11    19    1
     5    19    20    1
     6    11     1    1
     7     1     2   ar
     8     2     3   ar
     9     3    21    1
    10    21    22   am
    11    22    23    2
    12    22    25    1
    13    25    26   ar
    14    26    27   ar
    15    27    28   ar
    16    28    31    1
    17    31    32    1
    18    32    33    1
    19    28    29   ar
    20    29    30   ar
    21     3     4   ar
    22     4     5   ar
    23     5     6   ar
    24     6     7    1
    25    11    12    1
    26    12    13    1
    27    13    14    1
    28    14    15    1
    29    14    16    1
    30    14     9    1
    31     6     1   ar
    32    30    25   ar
    33     8    17    1
    34     8    18    1
    35    21    24    1
@<TRIPOS>MOLECULE
*****
 33 35 0 0 0
SMALL
GASTEIGER

@<TRIPOS>ATOM
      1 C         142.8454  141.4781  163.8595 C.ar    1  UNL1        0.0531
      2 C         142.6613  142.0161  162.4714 C.ar    1  UNL1        0.0167
      3 C         143.0485  143.4310  162.1581 C.ar    1  UNL1        0.0505
      4 C         143.6197  144.3079  163.2326 C.ar    1  UNL1        0.0170
      5 C         143.8038  143.7699  164.6207 C.ar    1  UNL1        0.0307
      6 C         143.4166  142.3550  164.9341 C.ar    1  UNL1        0.1402
      7 F         143.6007  141.8170  166.3221 F       1  UNL1       -0.2044
      8 N         138.6119  140.6269  164.9716 N.pl3   1  UNL1       -0.2456
      9 C         139.9335  139.9454  164.7744 C.2     1  UNL1        0.3505
     10 N         141.1366  140.7447  164.3701 N.2     1  UNL1       -0.0663
     11 C         142.4582  140.0632  164.1729 C.3     1  UNL1        0.2279
     12 C         142.5767  138.5824  164.3799 C.3     1  UNL1        0.0626
     13 C         141.3736  137.7830  164.7842 C.3     1  UNL1        0.0838
     14 C         140.0520  138.4645  164.9815 C.3     1  UNL1        0.3553
     15 F         139.6648  137.0496  165.2948 F       1  UNL1       -0.1914
     16 F         138.5959  138.6546  165.2876 F       1  UNL1       -0.1914
     17 H         138.5341  141.5988  164.8357 H       1  UNL1        0.2883
     18 H         137.8222  140.1022  165.2370 H       1  UNL1        0.2883
     19 C         143.9143  139.8732  163.8668 C.3     1  UNL1        0.2460
     20 F         144.3440  138.8185  162.8905 F       1  UNL1       -0.2293
     21 N         142.8644  143.9691  160.7700 N.am    1  UNL1       -0.2791
     22 C         141.5505  144.5697  160.3665 C.2     1  UNL1        0.2688
     23 O         140.4206  144.6323  161.3511 O.2     1  UNL1       -0.2681
     24 H         143.6060  143.9280  160.1238 H       1  UNL1        0.1552
     25 C         141.3665  145.1077  158.9785 C.ar    1  UNL1        0.1541
     26 C         140.0851  145.7910  158.6028 C.ar    1  UNL1        0.1258
     27 N         139.9010  146.3290  157.2147 N.ar    1  UNL1       -0.2070
     28 C         140.9984  146.1838  156.2024 C.ar    1  UNL1        0.2469
     29 C         142.2797  145.5005  156.5781 C.ar    1  UNL1        0.1566
     30 N         142.4638  144.9624  157.9662 N.ar    1  UNL1       -0.2328
     31 O         140.8143  146.7218  154.8144 O.3     1  UNL1       -0.4265
     32 C         139.9360  147.9155  154.5830 C.3     1  UNL1        0.4044
     33 F         140.5468  149.2382  154.2262 F       1  UNL1       -0.1809
@<TRIPOS>BOND
     1     8     9    1
     2     9    10    2
     3    10    11    1
     4    11    19    1
     5    19    20    1
     6    11     1    1
     7     1     2   ar
     8     2     3   ar
     9     3    21    1
    10    21    22   am
    11    22    23    2
    12    22    25    1
    13    25    26   ar
    14    26    27   ar
    15    27    28   ar
    16    28    31    1
    17    31    32    1
    18    32    33    1
    19    28    29   ar
    20    29    30   ar
    21     3     4   ar
    22     4     5   ar
    23     5     6   ar
    24     6     7    1
    25    11    12    1
    26    12    13    1
    27    13    14    1
    28    14    15    1
    29    14    16    1
    30    14     9    1
    31     6     1   ar
    32    30    25   ar
    33     8    17    1
    34     8    18    1
    35    21    24    1
