@<TRIPOS>MOLECULE
*****
 44 49 0 0 0
SMALL
GASTEIGER

@<TRIPOS>ATOM
      1 C         143.0262  142.2973  158.5697 C.3     1  UNL1        0.0546
      2 C         143.0827  143.6407  157.9049 C.3     1  UNL1        0.0180
      3 C         141.7323  143.9239  157.3165 C.3     1  UNL1        0.0310
      4 C         140.9325  144.9292  156.5420 C.3     1  UNL1        0.0942
      5 N         139.5472  144.3821  156.3646 N.am    1  UNL1       -0.2756
      6 C         138.4168  145.0595  155.6481 C.2     1  UNL1        0.2492
      7 O         137.0799  144.3864  155.5507 O.2     1  UNL1       -0.2699
      8 C         139.4907  143.0387  157.0294 C.3     1  UNL1        0.1023
      9 C         140.8411  142.7555  157.6177 C.3     1  UNL1        0.0902
     10 C         141.6408  141.7502  158.3922 C.3     1  UNL1        0.0261
     11 C         139.9500  141.5871  157.9190 C.2     1  UNL1        0.2267
     12 O         139.7434  140.5163  156.8890 O.2     1  UNL1       -0.2748
     13 N         139.2655  141.4894  159.2502 N.am    1  UNL1       -0.2750
     14 C         138.3744  140.3210  159.5514 C.3     1  UNL1        0.1000
     15 C         137.6900  140.2234  160.8825 C.3     1  UNL1        0.0670
     16 C         137.8966  141.2942  161.9124 C.ar    1  UNL1        0.0583
     17 N         137.2121  141.1965  163.2436 N.ar    1  UNL1       -0.2484
     18 C         137.4188  142.2673  164.2735 C.ar    1  UNL1        0.1023
     19 C         138.3099  143.4358  163.9723 C.ar    1  UNL1        0.0902
     20 C         138.9943  143.5334  162.6411 C.ar    1  UNL1        0.0040
     21 C         138.7877  142.4626  161.6112 C.ar    1  UNL1        0.0113
     22 C         139.4721  142.5602  160.2801 C.3     1  UNL1        0.1213
     23 C         138.5166  144.5065  165.0022 C.3     1  UNL1        0.4200
     24 F         138.7232  145.5773  166.0321 F       1  UNL1       -0.1658
     25 F         137.0509  144.4833  165.3204 F       1  UNL1       -0.1658
     26 F         139.9822  144.5298  164.6839 F       1  UNL1       -0.1658
     27 N         144.1566  141.6198  159.2862 N.3     1  UNL1       -0.2975
     28 H         144.0906  140.6259  159.0670 H       1  UNL1        0.1232
     29 C         144.3540  140.4860  161.6154 C.3     1  UNL1        0.1591
     30 C         144.4683  140.5938  163.1072 C.3     1  UNL1        0.1729
     31 O         144.4993  141.9431  163.7615 O.3     1  UNL1       -0.3511
     32 C         144.4160  143.1849  162.9240 C.3     1  UNL1        0.1437
     33 C         144.3018  143.0771  161.4322 C.3     1  UNL1        0.0503
     34 C         144.2708  141.7276  160.7780 C.3     1  UNL1        0.0865
     35 C         143.5641  138.0109  161.5992 C.3     1  UNL1        0.1742
     36 O         144.3230  139.1366  160.9612 O.3     1  UNL1       -0.3496
     37 C         138.6233  146.4101  155.0290 C.2     1  UNL1        0.0579
     38 C         138.7509  147.6235  155.9015 C.2     1  UNL1        0.0047
     39 C         138.9574  148.9741  155.2824 C.ar    1  UNL1        0.0001
     40 C         138.3825  150.1951  155.9371 C.ar    1  UNL1        0.0000
     41 C         138.5890  151.5457  155.3180 C.ar    1  UNL1        0.0000
     42 C         139.3705  151.6753  154.0442 C.ar    1  UNL1        0.0000
     43 C         139.9455  150.4543  153.3896 C.ar    1  UNL1        0.0000
     44 C         139.7389  149.1037  154.0086 C.ar    1  UNL1        0.0000
@<TRIPOS>BOND
     1    35    36    1
     2    36    29    1
     3    29    30    1
     4    30    31    1
     5    31    32    1
     6    32    33    1
     7    33    34    1
     8    34    27    1
     9     1    27    1
    10     1     2    1
    11     3     2    1
    12     3     4    1
    13     4     5    1
    14     5     6   am
    15     6     7    2
    16     6    37    1
    17    37    38    2
    18    38    39    1
    19    39    40   ar
    20    40    41   ar
    21    41    42   ar
    22    42    43   ar
    23    43    44   ar
    24     5     8    1
    25     8     9    1
    26     9    11    1
    27    11    12    2
    28    11    13   am
    29    13    14    1
    30    14    15    1
    31    15    16    1
    32    16    17   ar
    33    17    18   ar
    34    18    19   ar
    35    19    23    1
    36    23    24    1
    37    23    25    1
    38    23    26    1
    39    19    20   ar
    40    20    21   ar
    41    21    22    1
    42     9    10    1
    43    34    29    1
    44    10     1    1
    45     9     3    1
    46    22    13    1
    47    44    39   ar
    48    21    16   ar
    49    27    28    1
@<TRIPOS>MOLECULE
*****
 44 49 0 0 0
SMALL
GASTEIGER

@<TRIPOS>ATOM
      1 C         138.9291  141.3780  159.5064 C.3     1  UNL1        0.0546
      2 C         138.5494  139.9823  159.1092 C.3     1  UNL1        0.0180
      3 C         139.7338  139.3532  158.4374 C.3     1  UNL1        0.0310
      4 C         140.2312  138.1017  157.7767 C.3     1  UNL1        0.0942
      5 N         141.6503  138.3352  157.3504 N.am    1  UNL1       -0.2756
      6 C         142.5345  137.3464  156.6498 C.2     1  UNL1        0.2492
      7 O         143.9393  137.7240  156.2840 O.2     1  UNL1       -0.2699
      8 C         142.0300  139.7309  157.7476 C.3     1  UNL1        0.1023
      9 C         140.8456  140.3600  158.4194 C.3     1  UNL1        0.0902
     10 C         140.3482  141.6115  159.0801 C.3     1  UNL1        0.0261
     11 C         141.9572  141.3669  158.4014 C.2     1  UNL1        0.2267
     12 O         142.1218  142.2815  157.2240 O.2     1  UNL1       -0.2748
     13 N         142.9044  141.4592  159.5610 N.am    1  UNL1       -0.2750
     14 C         144.0161  142.4661  159.5430 C.3     1  UNL1        0.1000
     15 C         144.9632  142.5583  160.7025 C.3     1  UNL1        0.0670
     16 C         144.7986  141.6437  161.8800 C.ar    1  UNL1        0.0583
     17 N         145.7457  141.7360  163.0395 N.ar    1  UNL1       -0.2484
     18 C         145.5812  140.8213  164.2170 C.ar    1  UNL1        0.1023
     19 C         144.4694  139.8144  164.2349 C.ar    1  UNL1        0.0902
     20 C         143.5223  139.7222  163.0754 C.ar    1  UNL1        0.0040
     21 C         143.6869  140.6368  161.8979 C.ar    1  UNL1        0.0113
     22 C         142.7398  140.5446  160.7384 C.3     1  UNL1        0.1213
     23 C         144.3048  138.8998  165.4123 C.3     1  UNL1        0.4200
     24 F         144.1402  137.9852  166.5898 F       1  UNL1       -0.1658
     25 F         142.8364  139.2042  165.4435 F       1  UNL1       -0.1658
     26 F         145.7733  138.5955  165.3812 F       1  UNL1       -0.1658
     27 N         138.0449  142.3668  160.2069 N.3     1  UNL1       -0.2975
     28 H         138.1995  143.2697  159.7583 H       1  UNL1        0.1232
     29 C         138.8200  143.8473  162.1962 C.3     1  UNL1        0.1591
     30 C         138.9639  144.0674  163.6730 C.3     1  UNL1        0.1729
     31 O         138.4764  143.0270  164.6373 O.3     1  UNL1       -0.3511
     32 C         137.8451  141.7665  164.1248 C.3     1  UNL1        0.1437
     33 C         137.7013  141.5464  162.6480 C.3     1  UNL1        0.0503
     34 C         138.1888  142.5869  161.6837 C.3     1  UNL1        0.0865
     35 C         139.7695  146.2220  161.7383 C.3     1  UNL1        0.1742
     36 O         139.3075  144.8877  161.2319 O.3     1  UNL1       -0.3496
     37 C         142.0138  135.9801  156.3151 C.2     1  UNL1        0.0579
     38 C         142.9678  134.8359  156.1406 C.2     1  UNL1        0.0047
     39 C         142.4472  133.4696  155.8060 C.ar    1  UNL1        0.0001
     40 C         141.3955  133.3059  154.7489 C.ar    1  UNL1        0.0000
     41 C         140.8748  131.9396  154.4142 C.ar    1  UNL1        0.0000
     42 C         141.4057  130.7369  155.1365 C.ar    1  UNL1        0.0000
     43 C         142.4573  130.9006  156.1935 C.ar    1  UNL1        0.0000
     44 C         142.9780  132.2669  156.5283 C.ar    1  UNL1        0.0000
@<TRIPOS>BOND
     1    35    36    1
     2    36    29    1
     3    29    30    1
     4    30    31    1
     5    31    32    1
     6    32    33    1
     7    33    34    1
     8    34    27    1
     9     1    27    1
    10     1     2    1
    11     3     2    1
    12     3     4    1
    13     4     5    1
    14     5     6   am
    15     6     7    2
    16     6    37    1
    17    37    38    2
    18    38    39    1
    19    39    40   ar
    20    40    41   ar
    21    41    42   ar
    22    42    43   ar
    23    43    44   ar
    24     5     8    1
    25     8     9    1
    26     9    11    1
    27    11    12    2
    28    11    13   am
    29    13    14    1
    30    14    15    1
    31    15    16    1
    32    16    17   ar
    33    17    18   ar
    34    18    19   ar
    35    19    23    1
    36    23    24    1
    37    23    25    1
    38    23    26    1
    39    19    20   ar
    40    20    21   ar
    41    21    22    1
    42     9    10    1
    43    34    29    1
    44    10     1    1
    45     9     3    1
    46    22    13    1
    47    44    39   ar
    48    21    16   ar
    49    27    28    1
@<TRIPOS>MOLECULE
*****
 44 49 0 0 0
SMALL
GASTEIGER

@<TRIPOS>ATOM
      1 C         139.3755  140.2765  158.7739 C.3     1  UNL1        0.0546
      2 C         139.2641  138.8551  158.3078 C.3     1  UNL1        0.0180
      3 C         140.5674  138.4725  157.6713 C.3     1  UNL1        0.0310
      4 C         141.3040  137.3576  156.9899 C.3     1  UNL1        0.0942
      5 N         142.6762  137.8535  156.6415 N.am    1  UNL1       -0.2756
      6 C         143.7486  137.0661  155.9486 C.2     1  UNL1        0.2492
      7 O         145.0789  137.6987  155.6652 O.2     1  UNL1       -0.2699
      8 C         142.7876  139.2749  157.1076 C.3     1  UNL1        0.1023
      9 C         141.4843  139.6574  157.7441 C.3     1  UNL1        0.0902
     10 C         140.7476  140.7723  158.4255 C.3     1  UNL1        0.0261
     11 C         142.4011  140.8424  157.8168 C.2     1  UNL1        0.2267
     12 O         142.5307  141.7638  156.6403 O.2     1  UNL1       -0.2748
     13 N         143.1884  141.1059  159.0662 N.am    1  UNL1       -0.2750
     14 C         144.1053  142.2908  159.1389 C.3     1  UNL1        0.1000
     15 C         144.8925  142.5543  160.3882 C.3     1  UNL1        0.0670
     16 C         144.7629  141.6329  161.5647 C.ar    1  UNL1        0.0583
     17 N         145.5502  141.8965  162.8141 N.ar    1  UNL1       -0.2484
     18 C         145.4206  140.9751  163.9906 C.ar    1  UNL1        0.1023
     19 C         144.5037  139.7901  163.9178 C.ar    1  UNL1        0.0902
     20 C         143.7165  139.5266  162.6685 C.ar    1  UNL1        0.0040
     21 C         143.8461  140.4480  161.4920 C.ar    1  UNL1        0.0113
     22 C         143.0588  140.1845  160.2427 C.3     1  UNL1        0.1213
     23 C         144.3741  138.8687  165.0943 C.3     1  UNL1        0.4200
     24 F         144.2445  137.9473  166.2708 F       1  UNL1       -0.1658
     25 F         142.8799  138.9325  164.9797 F       1  UNL1       -0.1658
     26 F         145.8684  138.8049  165.2089 F       1  UNL1       -0.1658
     27 N         138.3030  141.0638  159.4667 N.3     1  UNL1       -0.2975
     28 H         138.1655  141.9158  158.9231 H       1  UNL1        0.1232
     29 C         138.1040  140.5550  162.0067 C.3     1  UNL1        0.1591
     30 C         138.2872  140.9771  163.4344 C.3     1  UNL1        0.1729
     31 O         138.8528  142.3300  163.7498 O.3     1  UNL1       -0.3511
     32 C         139.2351  143.2610  162.6375 C.3     1  UNL1        0.1437
     33 C         139.0519  142.8389  161.2098 C.3     1  UNL1        0.0503
     34 C         138.4863  141.4859  160.8944 C.3     1  UNL1        0.0865
     35 C         138.2671  137.9647  162.1252 C.3     1  UNL1        0.1742
     36 O         137.5384  139.2020  161.6913 O.3     1  UNL1       -0.3496
     37 C         143.4908  135.6464  155.5392 C.2     1  UNL1        0.0579
     38 C         143.7669  134.5271  156.4990 C.2     1  UNL1        0.0047
     39 C         143.5090  133.1073  156.0895 C.ar    1  UNL1        0.0001
     40 C         142.1168  132.6666  155.7466 C.ar    1  UNL1        0.0000
     41 C         141.8590  131.2468  155.3371 C.ar    1  UNL1        0.0000
     42 C         142.9933  130.2677  155.2707 C.ar    1  UNL1        0.0000
     43 C         144.3855  130.7083  155.6136 C.ar    1  UNL1        0.0000
     44 C         144.6434  132.1281  156.0231 C.ar    1  UNL1        0.0000
@<TRIPOS>BOND
     1    35    36    1
     2    36    29    1
     3    29    30    1
     4    30    31    1
     5    31    32    1
     6    32    33    1
     7    33    34    1
     8    34    27    1
     9     1    27    1
    10     1     2    1
    11     3     2    1
    12     3     4    1
    13     4     5    1
    14     5     6   am
    15     6     7    2
    16     6    37    1
    17    37    38    2
    18    38    39    1
    19    39    40   ar
    20    40    41   ar
    21    41    42   ar
    22    42    43   ar
    23    43    44   ar
    24     5     8    1
    25     8     9    1
    26     9    11    1
    27    11    12    2
    28    11    13   am
    29    13    14    1
    30    14    15    1
    31    15    16    1
    32    16    17   ar
    33    17    18   ar
    34    18    19   ar
    35    19    23    1
    36    23    24    1
    37    23    25    1
    38    23    26    1
    39    19    20   ar
    40    20    21   ar
    41    21    22    1
    42     9    10    1
    43    34    29    1
    44    10     1    1
    45     9     3    1
    46    22    13    1
    47    44    39   ar
    48    21    16   ar
    49    27    28    1
@<TRIPOS>MOLECULE
*****
 44 49 0 0 0
SMALL
GASTEIGER

@<TRIPOS>ATOM
      1 C         140.0028  140.6036  158.4404 C.3     1  UNL1        0.0546
      2 C         139.3392  139.6159  157.5272 C.3     1  UNL1        0.0180
      3 C         140.3031  138.4936  157.2792 C.3     1  UNL1        0.0310
      4 C         140.4887  137.1896  156.5615 C.3     1  UNL1        0.0942
      5 N         141.8628  136.6779  156.8779 N.am    1  UNL1       -0.2756
      6 C         142.4671  135.4023  156.3702 C.2     1  UNL1        0.2492
      7 O         143.8599  135.0192  156.7745 O.2     1  UNL1       -0.2699
      8 C         142.5264  137.6656  157.7911 C.3     1  UNL1        0.1023
      9 C         141.5625  138.7878  158.0392 C.3     1  UNL1        0.0902
     10 C         141.3768  140.0918  158.7568 C.3     1  UNL1        0.0261
     11 C         142.8218  139.0820  158.7991 C.2     1  UNL1        0.2267
     12 O         144.0876  139.3986  158.0593 O.2     1  UNL1       -0.2748
     13 N         142.8153  139.0595  160.2990 N.am    1  UNL1       -0.2750
     14 C         144.0746  139.3537  161.0589 C.3     1  UNL1        0.1000
     15 C         144.0680  139.3313  162.5587 C.3     1  UNL1        0.0670
     16 C         142.8022  139.0147  163.2986 C.ar    1  UNL1        0.0583
     17 N         142.7956  138.9923  164.7984 N.ar    1  UNL1       -0.2484
     18 C         141.5298  138.6757  165.5383 C.ar    1  UNL1        0.1023
     19 C         140.2704  138.3815  164.7782 C.ar    1  UNL1        0.0902
     20 C         140.2770  138.4039  163.2784 C.ar    1  UNL1        0.0040
     21 C         141.5429  138.7205  162.5386 C.ar    1  UNL1        0.0113
     22 C         141.5494  138.7429  161.0388 C.3     1  UNL1        0.1213
     23 C         139.0046  138.0649  165.5181 C.3     1  UNL1        0.4200
     24 F         137.7387  137.7482  166.2579 F       1  UNL1       -0.1658
     25 F         138.5886  137.1417  164.4113 F       1  UNL1       -0.1658
     26 F         139.4205  138.9880  166.6248 F       1  UNL1       -0.1658
     27 N         139.3985  141.8792  158.9482 N.3     1  UNL1       -0.2975
     28 H         140.1391  142.5805  158.9377 H       1  UNL1        0.1232
     29 C         138.7504  143.2118  161.0822 C.3     1  UNL1        0.1591
     30 C         138.1308  143.2567  162.4475 C.3     1  UNL1        0.1729
     31 O         137.5395  142.0140  163.0440 O.3     1  UNL1       -0.3511
     32 C         137.5678  140.7262  162.2753 C.3     1  UNL1        0.1437
     33 C         138.1875  140.6813  160.9100 C.3     1  UNL1        0.0503
     34 C         138.7788  141.9241  160.3135 C.3     1  UNL1        0.0865
     35 C         140.7411  144.8635  160.8389 C.3     1  UNL1        0.1742
     36 O         139.3417  144.4545  160.4857 O.3     1  UNL1       -0.3496
     37 C         141.6786  134.5098  155.4582 C.2     1  UNL1        0.0579
     38 C         141.9814  133.0418  155.3995 C.2     1  UNL1        0.0047
     39 C         141.1930  132.1493  154.4875 C.ar    1  UNL1        0.0001
     40 C         140.8878  132.5899  153.0864 C.ar    1  UNL1        0.0000
     41 C         140.0994  131.6974  152.1745 C.ar    1  UNL1        0.0000
     42 C         139.6160  130.3643  152.6634 C.ar    1  UNL1        0.0000
     43 C         139.9211  129.9237  154.0644 C.ar    1  UNL1        0.0000
     44 C         140.7096  130.8162  154.9765 C.ar    1  UNL1        0.0000
@<TRIPOS>BOND
     1    35    36    1
     2    36    29    1
     3    29    30    1
     4    30    31    1
     5    31    32    1
     6    32    33    1
     7    33    34    1
     8    34    27    1
     9     1    27    1
    10     1     2    1
    11     3     2    1
    12     3     4    1
    13     4     5    1
    14     5     6   am
    15     6     7    2
    16     6    37    1
    17    37    38    2
    18    38    39    1
    19    39    40   ar
    20    40    41   ar
    21    41    42   ar
    22    42    43   ar
    23    43    44   ar
    24     5     8    1
    25     8     9    1
    26     9    11    1
    27    11    12    2
    28    11    13   am
    29    13    14    1
    30    14    15    1
    31    15    16    1
    32    16    17   ar
    33    17    18   ar
    34    18    19   ar
    35    19    23    1
    36    23    24    1
    37    23    25    1
    38    23    26    1
    39    19    20   ar
    40    20    21   ar
    41    21    22    1
    42     9    10    1
    43    34    29    1
    44    10     1    1
    45     9     3    1
    46    22    13    1
    47    44    39   ar
    48    21    16   ar
    49    27    28    1
@<TRIPOS>MOLECULE
*****
 44 49 0 0 0
SMALL
GASTEIGER

@<TRIPOS>ATOM
      1 C         138.6180  141.7883  159.8905 C.3     1  UNL1        0.0546
      2 C         138.1324  140.8199  158.8530 C.3     1  UNL1        0.0180
      3 C         139.2881  139.9517  158.4523 C.3     1  UNL1        0.0310
      4 C         139.7023  138.8166  157.5635 C.3     1  UNL1        0.0942
      5 N         141.1581  138.5469  157.8040 N.am    1  UNL1       -0.2756
      6 C         141.9835  137.4936  157.1260 C.2     1  UNL1        0.2492
      7 O         143.4352  137.3410  157.4711 O.2     1  UNL1       -0.2699
      8 C         141.6437  139.5153  158.8415 C.3     1  UNL1        0.1023
      9 C         140.4881  140.3835  159.2422 C.3     1  UNL1        0.0902
     10 C         140.0739  141.5186  160.1310 C.3     1  UNL1        0.0261
     11 C         141.6879  140.8154  160.0320 C.2     1  UNL1        0.2267
     12 O         142.8642  141.4302  159.3332 O.2     1  UNL1       -0.2748
     13 N         141.7114  140.6324  161.5207 N.am    1  UNL1       -0.2750
     14 C         142.9113  141.0642  162.3105 C.3     1  UNL1        0.1000
     15 C         142.9348  140.8813  163.7991 C.3     1  UNL1        0.0670
     16 C         141.7584  140.2664  164.4978 C.ar    1  UNL1        0.0583
     17 N         141.7820  140.0835  165.9865 N.ar    1  UNL1       -0.2484
     18 C         140.6057  139.4686  166.6852 C.ar    1  UNL1        0.1023
     19 C         139.4058  139.0368  165.8953 C.ar    1  UNL1        0.0902
     20 C         139.3823  139.2198  164.4067 C.ar    1  UNL1        0.0040
     21 C         140.5586  139.8346  163.7080 C.ar    1  UNL1        0.0113
     22 C         140.5351  140.0176  162.2194 C.3     1  UNL1        0.1213
     23 C         138.2295  138.4220  166.5941 C.3     1  UNL1        0.4200
     24 F         137.0531  137.8072  167.2928 F       1  UNL1       -0.1658
     25 F         138.2888  139.4963  167.6392 F       1  UNL1       -0.1658
     26 F         138.1701  137.3477  165.5489 F       1  UNL1       -0.1658
     27 N         137.7927  142.8416  160.5684 N.3     1  UNL1       -0.2975
     28 H         137.9425  143.7095  160.0539 H       1  UNL1        0.1232
     29 C         138.7369  144.4095  162.4124 C.3     1  UNL1        0.1591
     30 C         138.9625  144.7212  163.8622 C.3     1  UNL1        0.1729
     31 O         138.4695  143.7765  164.9179 O.3     1  UNL1       -0.3511
     32 C         137.7509  142.5201  164.5238 C.3     1  UNL1        0.1437
     33 C         137.5253  142.2085  163.0740 C.3     1  UNL1        0.0503
     34 C         138.0183  143.1532  162.0183 C.3     1  UNL1        0.0865
     35 C         140.6280  145.2254  160.8287 C.3     1  UNL1        0.1742
     36 O         139.2298  145.3541  161.3566 O.3     1  UNL1       -0.3496
     37 C         141.3570  136.5931  156.1031 C.2     1  UNL1        0.0579
     38 C         142.2239  135.7692  155.1977 C.2     1  UNL1        0.0047
     39 C         141.5975  134.8686  154.1748 C.ar    1  UNL1        0.0001
     40 C         140.8597  135.4571  153.0088 C.ar    1  UNL1        0.0000
     41 C         140.2333  134.5565  151.9858 C.ar    1  UNL1        0.0000
     42 C         140.3445  133.0675  152.1288 C.ar    1  UNL1        0.0000
     43 C         141.0822  132.4790  153.2947 C.ar    1  UNL1        0.0000
     44 C         141.7087  133.3796  154.3177 C.ar    1  UNL1        0.0000
@<TRIPOS>BOND
     1    35    36    1
     2    36    29    1
     3    29    30    1
     4    30    31    1
     5    31    32    1
     6    32    33    1
     7    33    34    1
     8    34    27    1
     9     1    27    1
    10     1     2    1
    11     3     2    1
    12     3     4    1
    13     4     5    1
    14     5     6   am
    15     6     7    2
    16     6    37    1
    17    37    38    2
    18    38    39    1
    19    39    40   ar
    20    40    41   ar
    21    41    42   ar
    22    42    43   ar
    23    43    44   ar
    24     5     8    1
    25     8     9    1
    26     9    11    1
    27    11    12    2
    28    11    13   am
    29    13    14    1
    30    14    15    1
    31    15    16    1
    32    16    17   ar
    33    17    18   ar
    34    18    19   ar
    35    19    23    1
    36    23    24    1
    37    23    25    1
    38    23    26    1
    39    19    20   ar
    40    20    21   ar
    41    21    22    1
    42     9    10    1
    43    34    29    1
    44    10     1    1
    45     9     3    1
    46    22    13    1
    47    44    39   ar
    48    21    16   ar
    49    27    28    1
@<TRIPOS>MOLECULE
*****
 44 49 0 0 0
SMALL
GASTEIGER

@<TRIPOS>ATOM
      1 C         138.4838  140.9717  160.7786 C.3     1  UNL1        0.0546
      2 C         138.3172  139.5893  160.2208 C.3     1  UNL1        0.0180
      3 C         139.5211  139.2800  159.3812 C.3     1  UNL1        0.0310
      4 C         140.1621  138.2345  158.5176 C.3     1  UNL1        0.0942
      5 N         141.4691  138.7795  158.0227 N.am    1  UNL1       -0.2756
      6 C         142.4391  138.0672  157.1272 C.2     1  UNL1        0.2492
      7 O         143.7128  138.7427  156.7133 O.2     1  UNL1       -0.2699
      8 C         141.6358  140.1619  158.5806 C.3     1  UNL1        0.1023
      9 C         140.4319  140.4712  159.4202 C.3     1  UNL1        0.0902
     10 C         139.7908  141.5167  160.2838 C.3     1  UNL1        0.0261
     11 C         141.3426  141.6624  159.4591 C.2     1  UNL1        0.2267
     12 O         141.5889  142.4593  158.2124 O.2     1  UNL1       -0.2748
     13 N         142.0070  142.0568  160.7449 N.am    1  UNL1       -0.2750
     14 C         142.9177  143.2480  160.7838 C.3     1  UNL1        0.1000
     15 C         143.5821  143.6424  162.0695 C.3     1  UNL1        0.0670
     16 C         143.3358  142.8455  163.3162 C.ar    1  UNL1        0.0583
     17 N         144.0003  143.2398  164.6020 N.ar    1  UNL1       -0.2484
     18 C         143.7540  142.4429  165.8487 C.ar    1  UNL1        0.1023
     19 C         142.8432  141.2517  165.8097 C.ar    1  UNL1        0.0902
     20 C         142.1788  140.8573  164.5240 C.ar    1  UNL1        0.0040
     21 C         142.4251  141.6542  163.2773 C.ar    1  UNL1        0.0113
     22 C         141.7607  141.2599  161.9916 C.3     1  UNL1        0.1213
     23 C         142.5969  140.4548  167.0564 C.3     1  UNL1        0.4200
     24 F         142.3506  139.6579  168.3031 F       1  UNL1       -0.1658
     25 F         143.1021  141.5974  167.8866 F       1  UNL1       -0.1658
     26 F         142.0918  139.3121  166.2262 F       1  UNL1       -0.1658
     27 N         137.5139  141.6840  161.6741 N.3     1  UNL1       -0.2975
     28 H         137.0183  142.3600  161.0929 H       1  UNL1        0.1232
     29 C         138.4239  141.6780  164.1076 C.3     1  UNL1        0.1591
     30 C         138.9218  142.4237  165.3101 C.3     1  UNL1        0.1729
     31 O         139.0077  143.9209  165.2817 O.3     1  UNL1       -0.3511
     32 C         138.5956  144.6726  164.0507 C.3     1  UNL1        0.1437
     33 C         138.0976  143.9270  162.8482 C.3     1  UNL1        0.0503
     34 C         138.0118  142.4296  162.8767 C.3     1  UNL1        0.0865
     35 C         138.5819  139.4397  165.4172 C.3     1  UNL1        0.1742
     36 O         138.3380  140.1808  164.1360 O.3     1  UNL1       -0.3496
     37 C         142.1353  136.6795  156.6458 C.2     1  UNL1        0.0579
     38 C         143.0014  135.5313  157.0721 C.2     1  UNL1        0.0047
     39 C         142.6976  134.1436  156.5907 C.ar    1  UNL1        0.0001
     40 C         141.6733  133.9300  155.5158 C.ar    1  UNL1        0.0000
     41 C         141.3695  132.5422  155.0344 C.ar    1  UNL1        0.0000
     42 C         142.0901  131.3680  155.6277 C.ar    1  UNL1        0.0000
     43 C         143.1144  131.5816  156.7025 C.ar    1  UNL1        0.0000
     44 C         143.4182  132.9694  157.1840 C.ar    1  UNL1        0.0000
@<TRIPOS>BOND
     1    35    36    1
     2    36    29    1
     3    29    30    1
     4    30    31    1
     5    31    32    1
     6    32    33    1
     7    33    34    1
     8    34    27    1
     9     1    27    1
    10     1     2    1
    11     3     2    1
    12     3     4    1
    13     4     5    1
    14     5     6   am
    15     6     7    2
    16     6    37    1
    17    37    38    2
    18    38    39    1
    19    39    40   ar
    20    40    41   ar
    21    41    42   ar
    22    42    43   ar
    23    43    44   ar
    24     5     8    1
    25     8     9    1
    26     9    11    1
    27    11    12    2
    28    11    13   am
    29    13    14    1
    30    14    15    1
    31    15    16    1
    32    16    17   ar
    33    17    18   ar
    34    18    19   ar
    35    19    23    1
    36    23    24    1
    37    23    25    1
    38    23    26    1
    39    19    20   ar
    40    20    21   ar
    41    21    22    1
    42     9    10    1
    43    34    29    1
    44    10     1    1
    45     9     3    1
    46    22    13    1
    47    44    39   ar
    48    21    16   ar
    49    27    28    1
@<TRIPOS>MOLECULE
*****
 44 49 0 0 0
SMALL
GASTEIGER

@<TRIPOS>ATOM
      1 C         144.2216  140.2792  161.5839 C.3     1  UNL1        0.0546
      2 C         143.8756  138.8403  161.3394 C.3     1  UNL1        0.0180
      3 C         143.3424  138.7226  159.9423 C.3     1  UNL1        0.0310
      4 C         142.7991  137.7606  158.9278 C.3     1  UNL1        0.0942
      5 N         142.4798  138.5323  157.6817 N.am    1  UNL1       -0.2756
      6 C         141.9138  137.9646  156.4138 C.2     1  UNL1        0.2492
      7 O         141.6452  138.8640  155.2438 O.2     1  UNL1       -0.2699
      8 C         142.8258  139.9712  157.9262 C.3     1  UNL1        0.1023
      9 C         143.3590  140.0888  159.3233 C.3     1  UNL1        0.0902
     10 C         143.9023  141.0508  160.3378 C.3     1  UNL1        0.0261
     11 C         143.3755  141.4550  158.7043 C.2     1  UNL1        0.2267
     12 O         144.2618  141.7342  157.5267 O.2     1  UNL1       -0.2748
     13 N         142.5058  142.5421  159.2628 N.am    1  UNL1       -0.2750
     14 C         142.5223  143.9083  158.6438 C.3     1  UNL1        0.1000
     15 C         141.6526  144.9953  159.2024 C.3     1  UNL1        0.0670
     16 C         140.7664  144.7161  160.3799 C.ar    1  UNL1        0.0583
     17 N         139.8967  145.8032  160.9385 N.ar    1  UNL1       -0.2484
     18 C         139.0104  145.5240  162.1160 C.ar    1  UNL1        0.1023
     19 C         138.9939  144.1577  162.7350 C.ar    1  UNL1        0.0902
     20 C         139.8636  143.0707  162.1765 C.ar    1  UNL1        0.0040
     21 C         140.7499  143.3499  160.9989 C.ar    1  UNL1        0.0113
     22 C         141.6196  142.2629  160.4404 C.3     1  UNL1        0.1213
     23 C         138.1077  143.8785  163.9126 C.3     1  UNL1        0.4200
     24 F         137.2214  143.5993  165.0901 F       1  UNL1       -0.1658
     25 F         138.8765  144.8757  164.7277 F       1  UNL1       -0.1658
     26 F         137.3388  142.8813  163.0975 F       1  UNL1       -0.1658
     27 N         144.7876  140.8469  162.8518 N.3     1  UNL1       -0.2975
     28 H         145.3337  140.1044  163.2888 H       1  UNL1        0.1232
     29 C         143.4142  140.5029  165.0302 C.3     1  UNL1        0.1591
     30 C         142.4955  141.0433  166.0856 C.3     1  UNL1        0.1729
     31 O         142.0314  142.4681  166.0180 O.3     1  UNL1       -0.3511
     32 C         142.4861  143.3526  164.8950 C.3     1  UNL1        0.1437
     33 C         143.4049  142.8122  163.8396 C.3     1  UNL1        0.0503
     34 C         143.8689  141.3873  163.9072 C.3     1  UNL1        0.0865
     35 C         143.7127  138.2947  166.3662 C.3     1  UNL1        0.1742
     36 O         143.8782  139.0781  165.0977 O.3     1  UNL1       -0.3496
     37 C         141.6166  136.4976  156.3160 C.2     1  UNL1        0.0579
     38 C         142.6685  135.5507  155.8193 C.2     1  UNL1        0.0047
     39 C         142.3712  134.0837  155.7215 C.ar    1  UNL1        0.0001
     40 C         141.4484  133.5750  154.6538 C.ar    1  UNL1        0.0000
     41 C         141.1511  132.1081  154.5560 C.ar    1  UNL1        0.0000
     42 C         141.7766  131.1498  155.5258 C.ar    1  UNL1        0.0000
     43 C         142.6994  131.6584  156.5934 C.ar    1  UNL1        0.0000
     44 C         142.9967  133.1254  156.6912 C.ar    1  UNL1        0.0000
@<TRIPOS>BOND
     1    35    36    1
     2    36    29    1
     3    29    30    1
     4    30    31    1
     5    31    32    1
     6    32    33    1
     7    33    34    1
     8    34    27    1
     9     1    27    1
    10     1     2    1
    11     3     2    1
    12     3     4    1
    13     4     5    1
    14     5     6   am
    15     6     7    2
    16     6    37    1
    17    37    38    2
    18    38    39    1
    19    39    40   ar
    20    40    41   ar
    21    41    42   ar
    22    42    43   ar
    23    43    44   ar
    24     5     8    1
    25     8     9    1
    26     9    11    1
    27    11    12    2
    28    11    13   am
    29    13    14    1
    30    14    15    1
    31    15    16    1
    32    16    17   ar
    33    17    18   ar
    34    18    19   ar
    35    19    23    1
    36    23    24    1
    37    23    25    1
    38    23    26    1
    39    19    20   ar
    40    20    21   ar
    41    21    22    1
    42     9    10    1
    43    34    29    1
    44    10     1    1
    45     9     3    1
    46    22    13    1
    47    44    39   ar
    48    21    16   ar
    49    27    28    1
@<TRIPOS>MOLECULE
*****
 44 49 0 0 0
SMALL
GASTEIGER

@<TRIPOS>ATOM
      1 C         142.2336  139.4524  159.2910 C.3     1  UNL1        0.0546
      2 C         141.7838  139.0450  160.6626 C.3     1  UNL1        0.0180
      3 C         141.4103  140.2871  161.4161 C.3     1  UNL1        0.0310
      4 C         140.9015  140.8030  162.7294 C.3     1  UNL1        0.0942
      5 N         140.8061  142.2970  162.6351 N.am    1  UNL1       -0.2756
      6 C         140.3423  143.2212  163.7217 C.2     1  UNL1        0.2492
      7 O         140.3001  144.7011  163.4803 O.2     1  UNL1       -0.2699
      8 C         141.2560  142.7045  161.2634 C.3     1  UNL1        0.1023
      9 C         141.6294  141.4623  160.5100 C.3     1  UNL1        0.0902
     10 C         142.1382  140.9464  159.1966 C.3     1  UNL1        0.0261
     11 C         141.8485  142.6375  159.6039 C.2     1  UNL1        0.2267
     12 O         143.0591  143.5053  159.7804 O.2     1  UNL1       -0.2748
     13 N         140.8568  142.9448  158.5211 N.am    1  UNL1       -0.2750
     14 C         141.0759  144.1200  157.6151 C.3     1  UNL1        0.1000
     15 C         140.0842  144.4273  156.5324 C.3     1  UNL1        0.0670
     16 C         138.8736  143.5595  156.3558 C.ar    1  UNL1        0.0583
     17 N         137.8819  143.8669  155.2731 N.ar    1  UNL1       -0.2484
     18 C         136.6713  142.9991  155.0965 C.ar    1  UNL1        0.1023
     19 C         136.4522  141.8239  156.0027 C.ar    1  UNL1        0.0902
     20 C         137.4438  141.5165  157.0853 C.ar    1  UNL1        0.0040
     21 C         138.6545  142.3844  157.2619 C.ar    1  UNL1        0.0113
     22 C         139.6461  142.0770  158.3446 C.3     1  UNL1        0.1213
     23 C         135.2415  140.9561  155.8261 C.3     1  UNL1        0.4200
     24 F         134.0309  140.0883  155.6495 F       1  UNL1       -0.1658
     25 F         135.1010  141.4397  154.4132 F       1  UNL1       -0.1658
     26 F         135.3821  140.4725  157.2390 F       1  UNL1       -0.1658
     27 N         142.6974  138.5282  158.2043 N.3     1  UNL1       -0.2975
     28 H         143.3687  139.0498  157.6407 H       1  UNL1        0.1232
     29 C         142.0135  136.6390  156.5571 C.3     1  UNL1        0.1591
     30 C         141.0197  136.0425  155.6050 C.3     1  UNL1        0.1729
     31 O         139.7161  136.7385  155.3480 O.3     1  UNL1       -0.3511
     32 C         139.4062  138.0312  156.0431 C.3     1  UNL1        0.1437
     33 C         140.4000  138.6277  156.9952 C.3     1  UNL1        0.0503
     34 C         141.7036  137.9316  157.2522 C.3     1  UNL1        0.0865
     35 C         143.3305  134.4917  157.1931 C.3     1  UNL1        0.1742
     36 O         143.3171  135.9430  156.8141 O.3     1  UNL1       -0.3496
     37 C         139.9207  142.6656  165.0496 C.2     1  UNL1        0.0579
     38 C         140.8125  142.8223  166.2455 C.2     1  UNL1        0.0047
     39 C         140.3909  142.2667  167.5735 C.ar    1  UNL1        0.0001
     40 C         140.4417  143.1311  168.7984 C.ar    1  UNL1        0.0000
     41 C         140.0201  142.5755  170.1264 C.ar    1  UNL1        0.0000
     42 C         139.5477  141.1555  170.2295 C.ar    1  UNL1        0.0000
     43 C         139.4969  140.2912  169.0046 C.ar    1  UNL1        0.0000
     44 C         139.9185  140.8468  167.6766 C.ar    1  UNL1        0.0000
@<TRIPOS>BOND
     1    35    36    1
     2    36    29    1
     3    29    30    1
     4    30    31    1
     5    31    32    1
     6    32    33    1
     7    33    34    1
     8    34    27    1
     9     1    27    1
    10     1     2    1
    11     3     2    1
    12     3     4    1
    13     4     5    1
    14     5     6   am
    15     6     7    2
    16     6    37    1
    17    37    38    2
    18    38    39    1
    19    39    40   ar
    20    40    41   ar
    21    41    42   ar
    22    42    43   ar
    23    43    44   ar
    24     5     8    1
    25     8     9    1
    26     9    11    1
    27    11    12    2
    28    11    13   am
    29    13    14    1
    30    14    15    1
    31    15    16    1
    32    16    17   ar
    33    17    18   ar
    34    18    19   ar
    35    19    23    1
    36    23    24    1
    37    23    25    1
    38    23    26    1
    39    19    20   ar
    40    20    21   ar
    41    21    22    1
    42     9    10    1
    43    34    29    1
    44    10     1    1
    45     9     3    1
    46    22    13    1
    47    44    39   ar
    48    21    16   ar
    49    27    28    1
@<TRIPOS>MOLECULE
*****
 44 49 0 0 0
SMALL
GASTEIGER

@<TRIPOS>ATOM
      1 C         140.0651  140.5039  157.6270 C.3     1  UNL1        0.0546
      2 C         139.4365  139.3801  156.8576 C.3     1  UNL1        0.0180
      3 C         140.4128  138.2420  156.8186 C.3     1  UNL1        0.0310
      4 C         140.6276  136.8440  156.3191 C.3     1  UNL1        0.0942
      5 N         141.9924  136.4004  156.7557 N.am    1  UNL1       -0.2756
      6 C         142.6186  135.0670  156.4725 C.2     1  UNL1        0.2492
      7 O         143.9986  134.7644  156.9764 O.2     1  UNL1       -0.2699
      8 C         142.6210  137.5241  157.5251 C.3     1  UNL1        0.1023
      9 C         141.6448  138.6623  157.5640 C.3     1  UNL1        0.0902
     10 C         141.4299  140.0602  158.0636 C.3     1  UNL1        0.0261
     11 C         142.8767  139.0826  158.3093 C.2     1  UNL1        0.2267
     12 O         144.1047  139.4983  157.5547 O.2     1  UNL1       -0.2748
     13 N         142.8808  139.0874  159.8094 N.am    1  UNL1       -0.2750
     14 C         144.1128  139.5077  160.5547 C.3     1  UNL1        0.1000
     15 C         144.1168  139.5125  162.0547 C.3     1  UNL1        0.0670
     16 C         142.8889  139.0969  162.8093 C.ar    1  UNL1        0.0583
     17 N         142.8929  139.1016  164.3093 N.ar    1  UNL1       -0.2484
     18 C         141.6650  138.6860  165.0639 C.ar    1  UNL1        0.1023
     19 C         140.4330  138.2656  164.3185 C.ar    1  UNL1        0.0902
     20 C         140.4290  138.2609  162.8186 C.ar    1  UNL1        0.0040
     21 C         141.6569  138.6765  162.0640 C.ar    1  UNL1        0.0113
     22 C         141.6529  138.6718  160.5640 C.3     1  UNL1        0.1213
     23 C         139.2051  137.8500  165.0732 C.3     1  UNL1        0.4200
     24 F         137.9771  137.4344  165.8278 F       1  UNL1       -0.1658
     25 F         139.6777  138.6236  166.2682 F       1  UNL1       -0.1658
     26 F         138.7325  137.0764  163.8781 F       1  UNL1       -0.1658
     27 N         139.4389  141.8372  157.9101 N.3     1  UNL1       -0.2975
     28 H         139.0261  142.1604  157.0352 H       1  UNL1        0.1232
     29 C         140.3902  143.1908  159.9134 C.3     1  UNL1        0.1591
     30 C         141.2299  144.3175  160.4381 C.3     1  UNL1        0.1729
     31 O         141.9583  145.2173  159.4843 O.3     1  UNL1       -0.3511
     32 C         141.8469  144.9905  158.0057 C.3     1  UNL1        0.1437
     33 C         141.0071  143.8638  157.4810 C.3     1  UNL1        0.0503
     34 C         140.2787  142.9639  158.4349 C.3     1  UNL1        0.0865
     35 C         138.2634  142.6256  161.2946 C.3     1  UNL1        0.1742
     36 O         139.6618  142.2909  160.8672 O.3     1  UNL1       -0.3496
     37 C         141.8648  134.0364  155.6855 C.2     1  UNL1        0.0579
     38 C         142.6108  133.0157  154.8782 C.2     1  UNL1        0.0047
     39 C         141.8569  131.9851  154.0912 C.ar    1  UNL1        0.0001
     40 C         140.5897  131.4004  154.6411 C.ar    1  UNL1        0.0000
     41 C         139.8359  130.3697  153.8541 C.ar    1  UNL1        0.0000
     42 C         140.3492  129.9237  152.5171 C.ar    1  UNL1        0.0000
     43 C         141.6163  130.5083  151.9671 C.ar    1  UNL1        0.0000
     44 C         142.3702  131.5390  152.7542 C.ar    1  UNL1        0.0000
@<TRIPOS>BOND
     1    35    36    1
     2    36    29    1
     3    29    30    1
     4    30    31    1
     5    31    32    1
     6    32    33    1
     7    33    34    1
     8    34    27    1
     9     1    27    1
    10     1     2    1
    11     3     2    1
    12     3     4    1
    13     4     5    1
    14     5     6   am
    15     6     7    2
    16     6    37    1
    17    37    38    2
    18    38    39    1
    19    39    40   ar
    20    40    41   ar
    21    41    42   ar
    22    42    43   ar
    23    43    44   ar
    24     5     8    1
    25     8     9    1
    26     9    11    1
    27    11    12    2
    28    11    13   am
    29    13    14    1
    30    14    15    1
    31    15    16    1
    32    16    17   ar
    33    17    18   ar
    34    18    19   ar
    35    19    23    1
    36    23    24    1
    37    23    25    1
    38    23    26    1
    39    19    20   ar
    40    20    21   ar
    41    21    22    1
    42     9    10    1
    43    34    29    1
    44    10     1    1
    45     9     3    1
    46    22    13    1
    47    44    39   ar
    48    21    16   ar
    49    27    28    1
