@<TRIPOS>MOLECULE
*****
 21 23 0 0 0
SMALL
GASTEIGER

@<TRIPOS>ATOM
      1 C         142.4634  140.1335  167.5465 C.3     1  UNL1        0.0629
      2 C         143.1022  138.8543  167.0932 C.3     1  UNL1        0.0247
      3 C         143.2619  138.5738  165.6283 C.3     1  UNL1        0.0690
      4 N         142.7828  139.5725  164.6168 N.3     1  UNL1       -0.2982
      5 C         142.1440  140.8517  165.0702 C.3     1  UNL1        0.0588
      6 C         141.9843  141.1322  166.5350 C.3     1  UNL1        0.0237
      7 H         142.0990  139.0933  164.0310 H       1  UNL1        0.1232
      8 O         140.6610  142.0477  172.1256 O.2     1  UNL1       -0.2645
      9 C         141.4751  141.2940  171.1162 C.ar    1  UNL1        0.2884
     10 C         141.2671  141.3041  169.6307 C.ar    1  UNL1        0.0986
     11 C         142.3036  140.4141  169.0114 C.ar    1  UNL1        0.1547
     12 O         143.1523  139.8539  170.1141 O.2     1  UNL1       -0.3802
     13 N         142.6403  140.3977  171.4149 N.ar    1  UNL1       -0.1839
     14 H         143.0050  140.2009  172.3079 H       1  UNL1        0.2107
     15 C         141.6649  141.8504  164.0587 C.3     1  UNL1        0.0420
     16 C         140.3836  142.5954  164.2890 C.ar    1  UNL1       -0.0208
     17 C         140.4158  144.0574  164.6230 C.ar    1  UNL1       -0.0042
     18 C         139.1345  144.8025  164.8533 C.ar    1  UNL1       -0.0003
     19 C         137.8209  144.0856  164.7495 C.ar    1  UNL1       -0.0000
     20 C         137.7888  142.6237  164.4155 C.ar    1  UNL1       -0.0003
     21 C         139.0701  141.8785  164.1852 C.ar    1  UNL1       -0.0042
@<TRIPOS>BOND
     1     8     9    2
     2     9    10   ar
     3    10    11   ar
     4     1    11    1
     5     1     2    1
     6     2     3    1
     7     3     4    1
     8     4     5    1
     9     5    15    1
    10    15    16    1
    11    16    17   ar
    12    17    18   ar
    13    18    19   ar
    14    19    20   ar
    15    20    21   ar
    16     5     6    1
    17    11    12   ar
    18    12    13   ar
    19    13     9   ar
    20     6     1    1
    21    21    16   ar
    22     4     7    1
    23    13    14    1
@<TRIPOS>MOLECULE
*****
 21 23 0 0 0
SMALL
GASTEIGER

@<TRIPOS>ATOM
      1 C         139.7326  140.1590  167.6010 C.3     1  UNL1        0.0629
      2 C         138.5705  139.2750  167.2572 C.3     1  UNL1        0.0247
      3 C         138.2176  139.0250  165.8209 C.3     1  UNL1        0.0690
      4 N         139.0267  139.6589  164.7285 N.3     1  UNL1       -0.2982
      5 C         140.1888  140.5428  165.0723 C.3     1  UNL1        0.0588
      6 C         140.5417  140.7929  166.5085 C.3     1  UNL1        0.0237
      7 H         138.3822  140.2222  164.1737 H       1  UNL1        0.1232
      8 O         141.6933  142.3641  171.9798 O.2     1  UNL1       -0.2645
      9 C         140.9868  141.4227  171.0500 C.ar    1  UNL1        0.2884
     10 C         140.8724  141.5734  169.5620 C.ar    1  UNL1        0.0986
     11 C         140.0856  140.4091  169.0373 C.ar    1  UNL1        0.1547
     12 O         139.7137  139.5388  170.2010 O.2     1  UNL1       -0.3802
     13 N         140.2707  140.1652  171.4449 N.ar    1  UNL1       -0.1839
     14 H         140.1818  139.8129  172.3599 H       1  UNL1        0.2107
     15 C         140.9979  141.1767  163.9798 C.3     1  UNL1        0.0420
     16 C         142.4948  141.0854  164.0057 C.ar    1  UNL1       -0.0208
     17 C         143.1689  139.7597  163.8101 C.ar    1  UNL1       -0.0042
     18 C         144.6659  139.6684  163.8361 C.ar    1  UNL1       -0.0003
     19 C         145.4888  140.9028  164.0576 C.ar    1  UNL1       -0.0000
     20 C         144.8148  142.2285  164.2532 C.ar    1  UNL1       -0.0003
     21 C         143.3178  142.3198  164.2273 C.ar    1  UNL1       -0.0042
@<TRIPOS>BOND
     1     8     9    2
     2     9    10   ar
     3    10    11   ar
     4     1    11    1
     5     1     2    1
     6     2     3    1
     7     3     4    1
     8     4     5    1
     9     5    15    1
    10    15    16    1
    11    16    17   ar
    12    17    18   ar
    13    18    19   ar
    14    19    20   ar
    15    20    21   ar
    16     5     6    1
    17    11    12   ar
    18    12    13   ar
    19    13     9   ar
    20     6     1    1
    21    21    16   ar
    22     4     7    1
    23    13    14    1
@<TRIPOS>MOLECULE
*****
 21 23 0 0 0
SMALL
GASTEIGER

@<TRIPOS>ATOM
      1 C         139.5700  139.9234  166.8146 C.3     1  UNL1        0.0629
      2 C         138.3939  139.4446  166.0163 C.3     1  UNL1        0.0247
      3 C         138.4865  139.3600  164.5216 C.3     1  UNL1        0.0690
      4 N         139.7553  139.7541  163.8252 N.3     1  UNL1       -0.2982
      5 C         140.9314  140.2329  164.6236 C.3     1  UNL1        0.0588
      6 C         140.8388  140.3176  166.1183 C.3     1  UNL1        0.0237
      7 H         139.5147  140.5038  163.1769 H       1  UNL1        0.1232
      8 O         140.7101  140.9536  171.8664 O.2     1  UNL1       -0.2645
      9 C         140.0015  140.4817  170.6315 C.ar    1  UNL1        0.2884
     10 C         140.5014  140.6132  169.2234 C.ar    1  UNL1        0.0986
     11 C         139.4774  140.0081  168.3094 C.ar    1  UNL1        0.1547
     12 O         138.3445  139.5026  169.1527 O.2     1  UNL1       -0.3802
     13 N         138.6684  139.7953  170.5877 N.ar    1  UNL1       -0.1839
     14 H         138.1050  139.5755  171.3646 H       1  UNL1        0.2107
     15 C         142.2002  140.6270  163.9273 C.3     1  UNL1        0.0420
     16 C         142.7676  142.0016  164.1235 C.ar    1  UNL1       -0.0208
     17 C         142.1741  143.1694  163.3926 C.ar    1  UNL1       -0.0042
     18 C         142.7414  144.5440  163.5889 C.ar    1  UNL1       -0.0003
     19 C         143.9023  144.7509  164.5160 C.ar    1  UNL1       -0.0000
     20 C         144.4959  143.5832  165.2468 C.ar    1  UNL1       -0.0003
     21 C         143.9285  142.2085  165.0506 C.ar    1  UNL1       -0.0042
@<TRIPOS>BOND
     1     8     9    2
     2     9    10   ar
     3    10    11   ar
     4     1    11    1
     5     1     2    1
     6     2     3    1
     7     3     4    1
     8     4     5    1
     9     5    15    1
    10    15    16    1
    11    16    17   ar
    12    17    18   ar
    13    18    19   ar
    14    19    20   ar
    15    20    21   ar
    16     5     6    1
    17    11    12   ar
    18    12    13   ar
    19    13     9   ar
    20     6     1    1
    21    21    16   ar
    22     4     7    1
    23    13    14    1
@<TRIPOS>MOLECULE
*****
 21 23 0 0 0
SMALL
GASTEIGER

@<TRIPOS>ATOM
      1 C         139.6050  140.4568  167.3648 C.3     1  UNL1        0.0629
      2 C         138.7931  139.2562  166.9784 C.3     1  UNL1        0.0247
      3 C         138.2325  139.1447  165.5916 C.3     1  UNL1        0.0690
      4 N         138.4838  140.2337  164.5912 N.3     1  UNL1       -0.2982
      5 C         139.2957  141.4343  164.9776 C.3     1  UNL1        0.0588
      6 C         139.8563  141.5458  166.3644 C.3     1  UNL1        0.0237
      7 H         137.5705  140.5786  164.2957 H       1  UNL1        0.1232
      8 O         140.6110  142.1889  172.2504 O.2     1  UNL1       -0.2645
      9 C         140.6280  141.3646  170.9973 C.ar    1  UNL1        0.2884
     10 C         139.8475  141.6443  169.7473 C.ar    1  UNL1        0.0986
     11 C         140.1656  140.5684  168.7517 C.ar    1  UNL1        0.1547
     12 O         141.1428  139.6238  169.3863 O.2     1  UNL1       -0.3802
     13 N         141.4286  140.1158  170.7742 N.ar    1  UNL1       -0.1839
     14 H         142.0351  139.6933  171.4245 H       1  UNL1        0.2107
     15 C         139.5471  142.5233  163.9772 C.3     1  UNL1        0.0420
     16 C         140.8918  143.1845  163.9102 C.ar    1  UNL1       -0.0208
     17 C         140.9956  144.6801  163.9603 C.ar    1  UNL1       -0.0042
     18 C         142.3403  145.3412  163.8933 C.ar    1  UNL1       -0.0003
     19 C         143.5813  144.5068  163.7762 C.ar    1  UNL1       -0.0000
     20 C         143.4776  143.0113  163.7261 C.ar    1  UNL1       -0.0003
     21 C         142.1328  142.3501  163.7931 C.ar    1  UNL1       -0.0042
@<TRIPOS>BOND
     1     8     9    2
     2     9    10   ar
     3    10    11   ar
     4     1    11    1
     5     1     2    1
     6     2     3    1
     7     3     4    1
     8     4     5    1
     9     5    15    1
    10    15    16    1
    11    16    17   ar
    12    17    18   ar
    13    18    19   ar
    14    19    20   ar
    15    20    21   ar
    16     5     6    1
    17    11    12   ar
    18    12    13   ar
    19    13     9   ar
    20     6     1    1
    21    21    16   ar
    22     4     7    1
    23    13    14    1
@<TRIPOS>MOLECULE
*****
 21 23 0 0 0
SMALL
GASTEIGER

@<TRIPOS>ATOM
      1 C         139.3853  139.7507  166.7642 C.3     1  UNL1        0.0629
      2 C         138.5801  138.6868  166.0788 C.3     1  UNL1        0.0247
      3 C         138.6448  138.5413  164.5874 C.3     1  UNL1        0.0690
      4 N         139.5147  139.4596  163.7812 N.3     1  UNL1       -0.2982
      5 C         140.3199  140.5235  164.4665 C.3     1  UNL1        0.0588
      6 C         140.2552  140.6691  165.9580 C.3     1  UNL1        0.0237
      7 H         138.9045  139.9347  163.1161 H       1  UNL1        0.1232
      8 O         140.6383  140.9477  171.7520 O.2     1  UNL1       -0.2645
      9 C         139.8966  140.4465  170.5484 C.ar    1  UNL1        0.2884
     10 C         140.3755  140.5096  169.1283 C.ar    1  UNL1        0.0986
     11 C         139.3206  139.8964  168.2557 C.ar    1  UNL1        0.1547
     12 O         138.1898  139.4544  169.1365 O.2     1  UNL1       -0.3802
     13 N         138.5458  139.7944  170.5535 N.ar    1  UNL1       -0.1839
     14 H         137.9903  139.6201  171.3474 H       1  UNL1        0.2107
     15 C         141.1898  141.4419  163.6603 C.3     1  UNL1        0.0420
     16 C         140.7025  142.8147  163.3029 C.ar    1  UNL1       -0.0208
     17 C         139.2715  143.0225  162.9042 C.ar    1  UNL1       -0.0042
     18 C         138.7842  144.3954  162.5468 C.ar    1  UNL1       -0.0003
     19 C         139.7279  145.5605  162.5882 C.ar    1  UNL1       -0.0000
     20 C         141.1589  145.3528  162.9869 C.ar    1  UNL1       -0.0003
     21 C         141.6463  143.9799  163.3443 C.ar    1  UNL1       -0.0042
@<TRIPOS>BOND
     1     8     9    2
     2     9    10   ar
     3    10    11   ar
     4     1    11    1
     5     1     2    1
     6     2     3    1
     7     3     4    1
     8     4     5    1
     9     5    15    1
    10    15    16    1
    11    16    17   ar
    12    17    18   ar
    13    18    19   ar
    14    19    20   ar
    15    20    21   ar
    16     5     6    1
    17    11    12   ar
    18    12    13   ar
    19    13     9   ar
    20     6     1    1
    21    21    16   ar
    22     4     7    1
    23    13    14    1
@<TRIPOS>MOLECULE
*****
 21 23 0 0 0
SMALL
GASTEIGER

@<TRIPOS>ATOM
      1 C         143.3161  142.4053  163.1031 C.3     1  UNL1        0.0629
      2 C         144.8087  142.5146  163.0026 C.3     1  UNL1        0.0247
      3 C         145.6815  141.4757  163.6420 C.3     1  UNL1        0.0690
      4 N         145.0617  140.3275  164.3819 N.3     1  UNL1       -0.2982
      5 C         143.5691  140.2182  164.4824 C.3     1  UNL1        0.0588
      6 C         142.6963  141.2571  163.8430 C.3     1  UNL1        0.0237
      7 H         145.4192  140.3650  165.3364 H       1  UNL1        0.1232
      8 O         139.1315  145.3779  161.8646 O.2     1  UNL1       -0.2645
      9 C         140.5198  144.8106  161.8945 C.ar    1  UNL1        0.2884
     10 C         140.9914  143.6789  162.7587 C.ar    1  UNL1        0.0986
     11 C         142.4433  143.4443  162.4638 C.ar    1  UNL1        0.1547
     12 O         142.8690  144.4309  161.4172 O.2     1  UNL1       -0.3802
     13 N         141.6803  145.2754  161.0654 N.ar    1  UNL1       -0.1839
     14 H         141.6645  146.0063  160.4061 H       1  UNL1        0.2107
     15 C         142.9493  139.0700  165.2223 C.3     1  UNL1        0.0420
     16 C         141.4735  139.0594  165.4901 C.ar    1  UNL1       -0.0208
     17 C         140.5522  138.2976  164.5840 C.ar    1  UNL1       -0.0042
     18 C         139.0764  138.2870  164.8518 C.ar    1  UNL1       -0.0003
     19 C         138.5217  139.0383  166.0257 C.ar    1  UNL1       -0.0000
     20 C         139.4429  139.8001  166.9318 C.ar    1  UNL1       -0.0003
     21 C         140.9188  139.8106  166.6640 C.ar    1  UNL1       -0.0042
@<TRIPOS>BOND
     1     8     9    2
     2     9    10   ar
     3    10    11   ar
     4     1    11    1
     5     1     2    1
     6     2     3    1
     7     3     4    1
     8     4     5    1
     9     5    15    1
    10    15    16    1
    11    16    17   ar
    12    17    18   ar
    13    18    19   ar
    14    19    20   ar
    15    20    21   ar
    16     5     6    1
    17    11    12   ar
    18    12    13   ar
    19    13     9   ar
    20     6     1    1
    21    21    16   ar
    22     4     7    1
    23    13    14    1
@<TRIPOS>MOLECULE
*****
 21 23 0 0 0
SMALL
GASTEIGER

@<TRIPOS>ATOM
      1 C         142.8298  141.7021  167.2304 C.3     1  UNL1        0.0629
      2 C         143.5550  142.6480  166.3197 C.3     1  UNL1        0.0247
      3 C         143.7716  142.2854  164.8805 C.3     1  UNL1        0.0690
      4 N         143.2631  140.9770  164.3519 N.3     1  UNL1       -0.2982
      5 C         142.5378  140.0312  165.2625 C.3     1  UNL1        0.0588
      6 C         142.3212  140.3937  166.7018 C.3     1  UNL1        0.0237
      7 H         144.0711  140.4729  163.9868 H       1  UNL1        0.1232
      8 O         140.6344  142.2085  172.0059 O.2     1  UNL1       -0.2645
      9 C         141.6039  142.2974  170.8648 C.ar    1  UNL1        0.2884
     10 C         141.3925  141.7517  169.4837 C.ar    1  UNL1        0.0986
     11 C         142.6131  142.0647  168.6698 C.ar    1  UNL1        0.1547
     12 O         143.5788  142.8037  169.5479 O.2     1  UNL1       -0.3802
     13 N         142.9552  142.9476  170.9045 N.ar    1  UNL1       -0.1839
     14 H         143.3614  143.3909  171.6841 H       1  UNL1        0.2107
     15 C         142.0293  138.7228  164.7339 C.3     1  UNL1        0.0420
     16 C         140.7972  138.6872  163.8791 C.ar    1  UNL1       -0.0208
     17 C         139.5578  139.4084  164.3193 C.ar    1  UNL1       -0.0042
     18 C         138.3258  139.3728  163.4645 C.ar    1  UNL1       -0.0003
     19 C         138.3331  138.6160  162.1694 C.ar    1  UNL1       -0.0000
     20 C         139.5724  137.8949  161.7291 C.ar    1  UNL1       -0.0003
     21 C         140.8046  137.9305  162.5840 C.ar    1  UNL1       -0.0042
@<TRIPOS>BOND
     1     8     9    2
     2     9    10   ar
     3    10    11   ar
     4     1    11    1
     5     1     2    1
     6     2     3    1
     7     3     4    1
     8     4     5    1
     9     5    15    1
    10    15    16    1
    11    16    17   ar
    12    17    18   ar
    13    18    19   ar
    14    19    20   ar
    15    20    21   ar
    16     5     6    1
    17    11    12   ar
    18    12    13   ar
    19    13     9   ar
    20     6     1    1
    21    21    16   ar
    22     4     7    1
    23    13    14    1
@<TRIPOS>MOLECULE
*****
 21 23 0 0 0
SMALL
GASTEIGER

@<TRIPOS>ATOM
      1 C         140.6209  141.1301  167.9653 C.3     1  UNL1        0.0629
      2 C         139.5886  140.0506  168.1030 C.3     1  UNL1        0.0247
      3 C         138.9193  139.4929  166.8819 C.3     1  UNL1        0.0690
      4 N         139.2823  140.0147  165.5233 N.3     1  UNL1       -0.2982
      5 C         140.3146  141.0941  165.3856 C.3     1  UNL1        0.0588
      6 C         140.9839  141.6518  166.6067 C.3     1  UNL1        0.0237
      7 H         138.4234  140.3738  165.1066 H       1  UNL1        0.1232
      8 O         143.6637  144.0716  171.1229 O.2     1  UNL1       -0.2645
      9 C         142.6889  143.0399  170.6377 C.ar    1  UNL1        0.2884
     10 C         142.2801  142.8146  169.2122 C.ar    1  UNL1        0.0986
     11 C         141.2903  141.6878  169.1864 C.ar    1  UNL1        0.1547
     12 O         141.0873  141.2168  170.5960 O.2     1  UNL1       -0.3802
     13 N         141.9517  142.0524  171.4929 N.ar    1  UNL1       -0.1839
     14 H         142.0227  141.9676  172.4712 H       1  UNL1        0.2107
     15 C         140.6777  141.6159  164.0270 C.3     1  UNL1        0.0420
     16 C         141.6224  142.7736  163.8960 C.ar    1  UNL1       -0.0208
     17 C         141.0985  144.1783  163.9433 C.ar    1  UNL1       -0.0042
     18 C         142.0432  145.3360  163.8123 C.ar    1  UNL1       -0.0003
     19 C         143.5120  145.0890  163.6340 C.ar    1  UNL1       -0.0000
     20 C         144.0359  143.6843  163.5866 C.ar    1  UNL1       -0.0003
     21 C         143.0912  142.5266  163.7176 C.ar    1  UNL1       -0.0042
@<TRIPOS>BOND
     1     8     9    2
     2     9    10   ar
     3    10    11   ar
     4     1    11    1
     5     1     2    1
     6     2     3    1
     7     3     4    1
     8     4     5    1
     9     5    15    1
    10    15    16    1
    11    16    17   ar
    12    17    18   ar
    13    18    19   ar
    14    19    20   ar
    15    20    21   ar
    16     5     6    1
    17    11    12   ar
    18    12    13   ar
    19    13     9   ar
    20     6     1    1
    21    21    16   ar
    22     4     7    1
    23    13    14    1
@<TRIPOS>MOLECULE
*****
 21 23 0 0 0
SMALL
GASTEIGER

@<TRIPOS>ATOM
      1 C         139.7136  142.3312  164.2290 C.3     1  UNL1        0.0629
      2 C         139.2867  141.1928  163.3506 C.3     1  UNL1        0.0247
      3 C         139.0178  139.8439  163.9490 C.3     1  UNL1        0.0690
      4 N         139.1758  139.6334  165.4257 N.3     1  UNL1       -0.2982
      5 C         139.6028  140.7719  166.3041 C.3     1  UNL1        0.0588
      6 C         139.8717  142.1208  165.7057 C.3     1  UNL1        0.0237
      7 H         139.8678  138.8937  165.5453 H       1  UNL1        0.1232
      8 O         139.2928  146.6916  161.2809 O.2     1  UNL1       -0.2645
      9 C         139.7891  145.6845  162.2755 C.ar    1  UNL1        0.2884
     10 C         139.1581  144.3573  162.5762 C.ar    1  UNL1        0.0986
     11 C         139.9826  143.6802  163.6306 C.ar    1  UNL1        0.1547
     12 O         141.1231  144.5890  163.9817 O.2     1  UNL1       -0.3802
     13 N         141.0036  145.8277  163.1442 N.ar    1  UNL1       -0.1839
     14 H         141.6149  146.5992  163.1616 H       1  UNL1        0.2107
     15 C         139.7609  140.5615  167.7808 C.3     1  UNL1        0.0420
     16 C         140.7788  141.3535  168.5466 C.ar    1  UNL1       -0.0208
     17 C         140.3753  142.6195  169.2428 C.ar    1  UNL1       -0.0042
     18 C         141.3932  143.4115  170.0085 C.ar    1  UNL1       -0.0003
     19 C         142.8147  142.9377  170.0781 C.ar    1  UNL1       -0.0000
     20 C         143.2183  141.6718  169.3820 C.ar    1  UNL1       -0.0003
     21 C         142.2003  140.8797  168.6162 C.ar    1  UNL1       -0.0042
@<TRIPOS>BOND
     1     8     9    2
     2     9    10   ar
     3    10    11   ar
     4     1    11    1
     5     1     2    1
     6     2     3    1
     7     3     4    1
     8     4     5    1
     9     5    15    1
    10    15    16    1
    11    16    17   ar
    12    17    18   ar
    13    18    19   ar
    14    19    20   ar
    15    20    21   ar
    16     5     6    1
    17    11    12   ar
    18    12    13   ar
    19    13     9   ar
    20     6     1    1
    21    21    16   ar
    22     4     7    1
    23    13    14    1
