@<TRIPOS>MOLECULE
*****
 24 26 0 0 0
SMALL
GASTEIGER

@<TRIPOS>ATOM
      1 C         141.4972  144.9376  162.6481 C.2     1  UNL1        0.0428
      2 C         141.3512  143.5762  163.2606 C.2     1  UNL1       -0.0145
      3 C         141.0995  142.2975  162.5177 C.3     1  UNL1        0.0458
      4 C         141.0241  141.1854  163.5216 C.3     1  UNL1        0.0984
      5 N         141.2291  141.7768  164.8848 N.am    1  UNL1       -0.2719
      6 C         141.2315  141.0229  166.1815 C.2     1  UNL1        0.2493
      7 O         141.0147  139.5387  166.1866 O.2     1  UNL1       -0.2699
      8 C         141.4313  143.2543  164.7234 C.3     1  UNL1        0.1169
      9 C         141.4506  141.7533  167.4732 C.ar    1  UNL1        0.0544
     10 C         140.3055  142.4542  168.1421 C.ar    1  UNL1        0.0046
     11 C         140.5247  143.1846  169.4338 C.ar    1  UNL1        0.0010
     12 C         141.8889  143.2142  170.0566 C.ar    1  UNL1        0.0114
     13 C         143.0341  142.5133  169.3877 C.ar    1  UNL1        0.0578
     14 CL        144.3984  142.5429  170.0105 Cl      1  UNL1       -0.0822
     15 C         142.8149  141.7829  168.0960 C.ar    1  UNL1        0.0159
     16 C         141.2881  145.2748  159.6744 C.1     1  UNL1       -0.0405
     17 C         141.3926  145.1062  161.1612 C.1     1  UNL1       -0.0582
     18 C         138.8331  147.2181  155.5275 C.3     1  UNL1        0.0521
     19 C         139.9560  146.4150  156.1141 C.ar    1  UNL1        0.0600
     20 C         140.9743  145.7805  155.2139 C.ar    1  UNL1        0.0148
     21 C         142.0973  144.9775  155.8005 C.ar    1  UNL1        0.0034
     22 C         142.2019  144.8089  157.2873 C.ar    1  UNL1        0.0276
     23 C         141.1835  145.4433  158.1875 C.ar    1  UNL1        0.1224
     24 N         140.0606  146.2464  157.6009 N.ar    1  UNL1       -0.2414
@<TRIPOS>BOND
     1    18    19    1
     2    19    20   ar
     3    20    21   ar
     4    21    22   ar
     5    22    23   ar
     6    23    16    1
     7    16    17    3
     8    17     1    1
     9     1     2    2
    10     2     3    1
    11     3     4    1
    12     4     5    1
    13     5     6   am
    14     6     7    2
    15     6     9    1
    16     9    10   ar
    17    10    11   ar
    18    11    12   ar
    19    12    13   ar
    20    13    14    1
    21    13    15   ar
    22     5     8    1
    23    23    24   ar
    24    24    19   ar
    25     8     2    1
    26    15     9   ar
@<TRIPOS>MOLECULE
*****
 24 26 0 0 0
SMALL
GASTEIGER

@<TRIPOS>ATOM
      1 C         142.5382  139.1933  158.8675 C.2     1  UNL1        0.0428
      2 C         142.9850  139.2189  160.2992 C.2     1  UNL1       -0.0145
      3 C         143.5417  138.0587  161.0700 C.3     1  UNL1        0.0458
      4 C         143.8544  138.5320  162.4586 C.3     1  UNL1        0.0984
      5 N         143.4910  139.9847  162.5461 N.am    1  UNL1       -0.2719
      6 C         143.6389  140.8592  163.7557 C.2     1  UNL1        0.2493
      7 O         144.1949  140.2918  165.0280 O.2     1  UNL1       -0.2699
      8 C         142.9537  140.4092  161.2115 C.3     1  UNL1        0.1169
      9 C         143.2307  142.3013  163.6930 C.ar    1  UNL1        0.0544
     10 C         144.2008  143.3346  163.2021 C.ar    1  UNL1        0.0046
     11 C         143.7927  144.7767  163.1394 C.ar    1  UNL1        0.0010
     12 C         142.4144  145.1854  163.5675 C.ar    1  UNL1        0.0114
     13 C         141.4443  144.1520  164.0584 C.ar    1  UNL1        0.0578
     14 CL        140.0660  144.5607  164.4867 Cl      1  UNL1       -0.0822
     15 C         141.8525  142.7100  164.1211 C.ar    1  UNL1        0.0159
     16 C         142.7207  136.6515  157.2845 C.1     1  UNL1       -0.0405
     17 C         142.6295  137.9223  158.0760 C.1     1  UNL1       -0.0582
     18 C         144.9456  132.0349  156.4258 C.3     1  UNL1        0.0521
     19 C         143.9245  133.0723  156.0636 C.ar    1  UNL1        0.0600
     20 C         142.9948  132.8388  154.9100 C.ar    1  UNL1        0.0148
     21 C         141.9737  133.8762  154.5478 C.ar    1  UNL1        0.0034
     22 C         141.8823  135.1471  155.3393 C.ar    1  UNL1        0.0276
     23 C         142.8121  135.3805  156.4929 C.ar    1  UNL1        0.1224
     24 N         143.8332  134.3432  156.8551 N.ar    1  UNL1       -0.2414
@<TRIPOS>BOND
     1    18    19    1
     2    19    20   ar
     3    20    21   ar
     4    21    22   ar
     5    22    23   ar
     6    23    16    1
     7    16    17    3
     8    17     1    1
     9     1     2    2
    10     2     3    1
    11     3     4    1
    12     4     5    1
    13     5     6   am
    14     6     7    2
    15     6     9    1
    16     9    10   ar
    17    10    11   ar
    18    11    12   ar
    19    12    13   ar
    20    13    14    1
    21    13    15   ar
    22     5     8    1
    23    23    24   ar
    24    24    19   ar
    25     8     2    1
    26    15     9   ar
@<TRIPOS>MOLECULE
*****
 24 26 0 0 0
SMALL
GASTEIGER

@<TRIPOS>ATOM
      1 C         142.1431  139.9942  162.8442 C.2     1  UNL1        0.0428
      2 C         141.1916  139.6881  163.9626 C.2     1  UNL1       -0.0145
      3 C         139.9954  138.7867  163.8806 C.3     1  UNL1        0.0458
      4 C         139.3338  138.7711  165.2268 C.3     1  UNL1        0.0984
      5 N         140.1211  139.6627  166.1407 N.am    1  UNL1       -0.2719
      6 C         139.8140  139.9390  167.5826 C.2     1  UNL1        0.2493
      7 O         138.6246  139.2967  168.2326 O.2     1  UNL1       -0.2699
      8 C         141.2693  140.2294  165.3593 C.3     1  UNL1        0.1169
      9 C         140.6964  140.8578  168.3745 C.ar    1  UNL1        0.0544
     10 C         142.0989  140.4455  168.7107 C.ar    1  UNL1        0.0046
     11 C         142.9814  141.3643  169.5027 C.ar    1  UNL1        0.0010
     12 C         142.4613  142.6953  169.9585 C.ar    1  UNL1        0.0114
     13 C         141.0588  143.1077  169.6223 C.ar    1  UNL1        0.0578
     14 CL        140.5387  144.4388  170.0781 Cl      1  UNL1       -0.0822
     15 C         140.1764  142.1889  168.8303 C.ar    1  UNL1        0.0159
     16 C         141.7310  138.7560  160.1429 C.1     1  UNL1       -0.0405
     17 C         141.9371  139.3751  161.4935 C.1     1  UNL1       -0.0582
     18 C         143.6042  136.1630  156.0481 C.3     1  UNL1        0.0521
     19 C         142.4615  136.8404  156.7448 C.ar    1  UNL1        0.0600
     20 C         141.1128  136.8987  156.0909 C.ar    1  UNL1        0.0148
     21 C         139.9701  137.5761  156.7877 C.ar    1  UNL1        0.0034
     22 C         140.1762  138.1952  158.1383 C.ar    1  UNL1        0.0276
     23 C         141.5249  138.1369  158.7922 C.ar    1  UNL1        0.1224
     24 N         142.6675  137.4595  158.0954 N.ar    1  UNL1       -0.2414
@<TRIPOS>BOND
     1    18    19    1
     2    19    20   ar
     3    20    21   ar
     4    21    22   ar
     5    22    23   ar
     6    23    16    1
     7    16    17    3
     8    17     1    1
     9     1     2    2
    10     2     3    1
    11     3     4    1
    12     4     5    1
    13     5     6   am
    14     6     7    2
    15     6     9    1
    16     9    10   ar
    17    10    11   ar
    18    11    12   ar
    19    12    13   ar
    20    13    14    1
    21    13    15   ar
    22     5     8    1
    23    23    24   ar
    24    24    19   ar
    25     8     2    1
    26    15     9   ar
@<TRIPOS>MOLECULE
*****
 24 26 0 0 0
SMALL
GASTEIGER

@<TRIPOS>ATOM
      1 C         139.7308  138.6095  159.0816 C.2     1  UNL1        0.0428
      2 C         141.0251  138.5448  158.3262 C.2     1  UNL1       -0.0145
      3 C         142.1103  139.5803  158.3462 C.3     1  UNL1        0.0458
      4 C         143.2173  139.1087  157.4505 C.3     1  UNL1        0.0984
      5 N         142.8164  137.7819  156.8772 N.am    1  UNL1       -0.2719
      6 C         143.6278  136.9497  155.9291 C.2     1  UNL1        0.2493
      7 O         144.9733  137.4302  155.4722 O.2     1  UNL1       -0.2699
      8 C         141.4615  137.4334  157.4184 C.3     1  UNL1        0.1169
      9 C         143.0938  135.6369  155.4378 C.ar    1  UNL1        0.0544
     10 C         142.4881  135.5385  154.0691 C.ar    1  UNL1        0.0046
     11 C         141.9540  134.2257  153.5778 C.ar    1  UNL1        0.0010
     12 C         142.0257  133.0113  154.4552 C.ar    1  UNL1        0.0114
     13 C         142.6314  133.1096  155.8239 C.ar    1  UNL1        0.0578
     14 CL        142.7030  131.8951  156.7015 Cl      1  UNL1       -0.0822
     15 C         143.1654  134.4224  156.3152 C.ar    1  UNL1        0.0159
     16 C         139.1309  140.9724  160.8301 C.1     1  UNL1       -0.0405
     17 C         139.4309  139.7910  159.9559 C.1     1  UNL1       -0.0582
     18 C         139.8225  145.9840  162.0156 C.3     1  UNL1        0.0521
     19 C         139.1768  144.6597  162.2971 C.ar    1  UNL1        0.0600
     20 C         138.2313  144.5167  163.4527 C.ar    1  UNL1        0.0148
     21 C         137.5857  143.1924  163.7342 C.ar    1  UNL1        0.0034
     22 C         137.8855  142.0109  162.8600 C.ar    1  UNL1        0.0276
     23 C         138.8310  142.1539  161.7044 C.ar    1  UNL1        0.1224
     24 N         139.4767  143.4782  161.4229 N.ar    1  UNL1       -0.2414
@<TRIPOS>BOND
     1    18    19    1
     2    19    20   ar
     3    20    21   ar
     4    21    22   ar
     5    22    23   ar
     6    23    16    1
     7    16    17    3
     8    17     1    1
     9     1     2    2
    10     2     3    1
    11     3     4    1
    12     4     5    1
    13     5     6   am
    14     6     7    2
    15     6     9    1
    16     9    10   ar
    17    10    11   ar
    18    11    12   ar
    19    12    13   ar
    20    13    14    1
    21    13    15   ar
    22     5     8    1
    23    23    24   ar
    24    24    19   ar
    25     8     2    1
    26    15     9   ar
@<TRIPOS>MOLECULE
*****
 24 26 0 0 0
SMALL
GASTEIGER

@<TRIPOS>ATOM
      1 C         140.9263  144.5224  162.9714 C.2     1  UNL1        0.0428
      2 C         141.5750  143.2812  163.5086 C.2     1  UNL1       -0.0145
      3 C         142.3056  142.2485  162.7024 C.3     1  UNL1        0.0458
      4 C         142.7890  141.1838  163.6419 C.3     1  UNL1        0.0984
      5 N         142.3572  141.5584  165.0287 N.am    1  UNL1       -0.2719
      6 C         142.6282  140.7744  166.2784 C.2     1  UNL1        0.2493
      7 O         143.3963  139.4882  166.2052 O.2     1  UNL1       -0.2699
      8 C         141.6069  142.8547  164.9463 C.3     1  UNL1        0.1169
      9 C         142.1309  141.2767  167.6015 C.ar    1  UNL1        0.0544
     10 C         142.9406  142.2724  168.3781 C.ar    1  UNL1        0.0046
     11 C         142.4433  142.7748  169.7011 C.ar    1  UNL1        0.0010
     12 C         141.1365  142.2814  170.2476 C.ar    1  UNL1        0.0114
     13 C         140.3269  141.2857  169.4711 C.ar    1  UNL1        0.0578
     14 CL        139.0199  140.7922  170.0176 Cl      1  UNL1       -0.0822
     15 C         140.8241  140.7834  168.1480 C.ar    1  UNL1        0.0159
     16 C         141.0257  145.1148  160.0321 C.1     1  UNL1       -0.0405
     17 C         140.9760  144.8186  161.5017 C.1     1  UNL1       -0.0582
     18 C         138.9469  147.3266  155.8146 C.3     1  UNL1        0.0521
     19 C         140.0359  146.5169  156.4537 C.ar    1  UNL1        0.0600
     20 C         141.1745  146.0033  155.6232 C.ar    1  UNL1        0.0148
     21 C         142.2635  145.1936  156.2623 C.ar    1  UNL1        0.0034
     22 C         142.2139  144.8975  157.7319 C.ar    1  UNL1        0.0276
     23 C         141.0753  145.4110  158.5624 C.ar    1  UNL1        0.1224
     24 N         139.9863  146.2207  157.9233 N.ar    1  UNL1       -0.2414
@<TRIPOS>BOND
     1    18    19    1
     2    19    20   ar
     3    20    21   ar
     4    21    22   ar
     5    22    23   ar
     6    23    16    1
     7    16    17    3
     8    17     1    1
     9     1     2    2
    10     2     3    1
    11     3     4    1
    12     4     5    1
    13     5     6   am
    14     6     7    2
    15     6     9    1
    16     9    10   ar
    17    10    11   ar
    18    11    12   ar
    19    12    13   ar
    20    13    14    1
    21    13    15   ar
    22     5     8    1
    23    23    24   ar
    24    24    19   ar
    25     8     2    1
    26    15     9   ar
@<TRIPOS>MOLECULE
*****
 24 26 0 0 0
SMALL
GASTEIGER

@<TRIPOS>ATOM
      1 C         142.6682  141.9291  162.4545 C.2     1  UNL1        0.0428
      2 C         142.9990  140.9726  163.5616 C.2     1  UNL1       -0.0145
      3 C         143.8818  139.7650  163.4492 C.3     1  UNL1        0.0458
      4 C         143.9335  139.1019  164.7937 C.3     1  UNL1        0.0984
      5 N         143.0827  139.8996  165.7370 N.am    1  UNL1       -0.2719
      6 C         142.8503  139.5946  167.1871 C.2     1  UNL1        0.2493
      7 O         143.4985  138.3964  167.8148 O.2     1  UNL1       -0.2699
      8 C         142.5052  141.0557  164.9755 C.3     1  UNL1        0.1169
      9 C         141.9695  140.4879  168.0095 C.ar    1  UNL1        0.0544
     10 C         142.3760  141.9080  168.2703 C.ar    1  UNL1        0.0046
     11 C         141.4952  142.8013  169.0927 C.ar    1  UNL1        0.0010
     12 C         140.2080  142.2745  169.6544 C.ar    1  UNL1        0.0114
     13 C         139.8015  140.8544  169.3936 C.ar    1  UNL1        0.0578
     14 CL        138.5142  140.3275  169.9553 Cl      1  UNL1       -0.0822
     15 C         140.6823  139.9611  168.5712 C.ar    1  UNL1        0.0159
     16 C         143.8111  141.5038  159.7135 C.1     1  UNL1       -0.0405
     17 C         143.2397  141.7165  161.0839 C.1     1  UNL1       -0.0582
     18 C         147.2182  142.7947  156.0086 C.3     1  UNL1        0.0521
     19 C         146.0861  141.9367  156.4906 C.ar    1  UNL1        0.0600
     20 C         145.5255  140.8661  155.6020 C.ar    1  UNL1        0.0148
     21 C         144.3934  140.0081  156.0839 C.ar    1  UNL1        0.0034
     22 C         143.8220  140.2207  157.4544 C.ar    1  UNL1        0.0276
     23 C         144.3826  141.2912  158.3429 C.ar    1  UNL1        0.1224
     24 N         145.5146  142.1492  157.8610 N.ar    1  UNL1       -0.2414
@<TRIPOS>BOND
     1    18    19    1
     2    19    20   ar
     3    20    21   ar
     4    21    22   ar
     5    22    23   ar
     6    23    16    1
     7    16    17    3
     8    17     1    1
     9     1     2    2
    10     2     3    1
    11     3     4    1
    12     4     5    1
    13     5     6   am
    14     6     7    2
    15     6     9    1
    16     9    10   ar
    17    10    11   ar
    18    11    12   ar
    19    12    13   ar
    20    13    14    1
    21    13    15   ar
    22     5     8    1
    23    23    24   ar
    24    24    19   ar
    25     8     2    1
    26    15     9   ar
@<TRIPOS>MOLECULE
*****
 24 26 0 0 0
SMALL
GASTEIGER

@<TRIPOS>ATOM
      1 C         141.3984  139.4937  159.3874 C.2     1  UNL1        0.0428
      2 C         141.1151  139.2975  160.8473 C.2     1  UNL1       -0.0145
      3 C         141.2101  138.0020  161.5975 C.3     1  UNL1        0.0458
      4 C         140.8407  138.2662  163.0272 C.3     1  UNL1        0.0984
      5 N         140.5175  139.7249  163.1605 N.am    1  UNL1       -0.2719
      6 C         140.0984  140.4234  164.4199 C.2     1  UNL1        0.2493
      7 O         139.9711  139.6509  165.6993 O.2     1  UNL1       -0.2699
      8 C         140.6871  140.3622  161.8133 C.3     1  UNL1        0.1169
      9 C         139.8066  141.8946  164.4000 C.ar    1  UNL1        0.0544
     10 C         138.4026  142.3836  164.5994 C.ar    1  UNL1        0.0046
     11 C         138.1108  143.8548  164.5794 C.ar    1  UNL1        0.0010
     12 C         139.2230  144.8371  164.3600 C.ar    1  UNL1        0.0114
     13 C         140.6269  144.3482  164.1606 C.ar    1  UNL1        0.0578
     14 CL        141.7392  145.3305  163.9412 Cl      1  UNL1       -0.0822
     15 C         140.9188  142.8770  164.1806 C.ar    1  UNL1        0.0159
     16 C         142.2415  137.1634  157.6965 C.1     1  UNL1       -0.0405
     17 C         141.8200  138.3286  158.5420 C.1     1  UNL1       -0.0582
     18 C         144.5159  132.5122  157.2567 C.3     1  UNL1        0.0521
     19 C         143.8003  133.6727  156.6313 C.ar    1  UNL1        0.0600
     20 C         143.5062  133.6679  155.1604 C.ar    1  UNL1        0.0148
     21 C         142.7905  134.8284  154.5349 C.ar    1  UNL1        0.0034
     22 C         142.3689  135.9935  155.3803 C.ar    1  UNL1        0.0276
     23 C         142.6630  135.9983  156.8511 C.ar    1  UNL1        0.1224
     24 N         143.3787  134.8378  157.4766 N.ar    1  UNL1       -0.2414
@<TRIPOS>BOND
     1    18    19    1
     2    19    20   ar
     3    20    21   ar
     4    21    22   ar
     5    22    23   ar
     6    23    16    1
     7    16    17    3
     8    17     1    1
     9     1     2    2
    10     2     3    1
    11     3     4    1
    12     4     5    1
    13     5     6   am
    14     6     7    2
    15     6     9    1
    16     9    10   ar
    17    10    11   ar
    18    11    12   ar
    19    12    13   ar
    20    13    14    1
    21    13    15   ar
    22     5     8    1
    23    23    24   ar
    24    24    19   ar
    25     8     2    1
    26    15     9   ar
@<TRIPOS>MOLECULE
*****
 24 26 0 0 0
SMALL
GASTEIGER

@<TRIPOS>ATOM
      1 C         143.8999  138.8504  162.4679 C.2     1  UNL1        0.0428
      2 C         142.7951  138.7950  161.4548 C.2     1  UNL1       -0.0145
      3 C         141.3657  139.1867  161.6867 C.3     1  UNL1        0.0458
      4 C         140.6129  138.9719  160.4071 C.3     1  UNL1        0.0984
      5 N         141.5769  138.4475  159.3845 N.am    1  UNL1       -0.2719
      6 C         141.2497  138.0945  157.9639 C.2     1  UNL1        0.2493
      7 O         139.8484  138.2571  157.4544 O.2     1  UNL1       -0.2699
      8 C         142.9256  138.3382  160.0321 C.3     1  UNL1        0.1169
      9 C         142.3240  137.5787  157.0528 C.ar    1  UNL1        0.0544
     10 C         143.1490  138.5383  156.2476 C.ar    1  UNL1        0.0046
     11 C         144.2232  138.0226  155.3365 C.ar    1  UNL1        0.0010
     12 C         144.4724  136.5473  155.2306 C.ar    1  UNL1        0.0114
     13 C         143.6474  135.5876  156.0359 C.ar    1  UNL1        0.0578
     14 CL        143.8966  134.1122  155.9300 Cl      1  UNL1       -0.0822
     15 C         142.5732  136.1034  156.9470 C.ar    1  UNL1        0.0159
     16 C         143.3349  139.8142  165.2522 C.1     1  UNL1       -0.0405
     17 C         143.6174  139.3323  163.8601 C.1     1  UNL1       -0.0582
     18 C         142.5299  138.8075  170.2860 C.3     1  UNL1        0.0521
     19 C         142.6499  139.7926  169.1612 C.ar    1  UNL1        0.0600
     20 C         142.4875  141.2596  169.4286 C.ar    1  UNL1        0.0148
     21 C         142.6075  142.2448  168.3039 C.ar    1  UNL1        0.0034
     22 C         142.8900  141.7630  166.9118 C.ar    1  UNL1        0.0276
     23 C         143.0524  140.2960  166.6444 C.ar    1  UNL1        0.1224
     24 N         142.9324  139.3108  167.7691 N.ar    1  UNL1       -0.2414
@<TRIPOS>BOND
     1    18    19    1
     2    19    20   ar
     3    20    21   ar
     4    21    22   ar
     5    22    23   ar
     6    23    16    1
     7    16    17    3
     8    17     1    1
     9     1     2    2
    10     2     3    1
    11     3     4    1
    12     4     5    1
    13     5     6   am
    14     6     7    2
    15     6     9    1
    16     9    10   ar
    17    10    11   ar
    18    11    12   ar
    19    12    13   ar
    20    13    14    1
    21    13    15   ar
    22     5     8    1
    23    23    24   ar
    24    24    19   ar
    25     8     2    1
    26    15     9   ar
@<TRIPOS>MOLECULE
*****
 24 26 0 0 0
SMALL
GASTEIGER

@<TRIPOS>ATOM
      1 C         142.8734  142.6004  158.7959 C.2     1  UNL1        0.0428
      2 C         143.2629  142.7768  160.2337 C.2     1  UNL1       -0.0145
      3 C         144.6633  142.8091  160.7702 C.3     1  UNL1        0.0458
      4 C         144.5862  143.0042  162.2555 C.3     1  UNL1        0.0984
      5 N         143.1382  143.0924  162.6369 N.am    1  UNL1       -0.2719
      6 C         142.6023  143.2869  164.0243 C.2     1  UNL1        0.2493
      7 O         143.5470  143.4122  165.1826 O.2     1  UNL1       -0.2699
      8 C         142.3204  142.9518  161.3874 C.3     1  UNL1        0.1169
      9 C         141.1215  143.3562  164.2533 C.ar    1  UNL1        0.0544
     10 C         140.4376  144.6883  164.3413 C.ar    1  UNL1        0.0046
     11 C         138.9568  144.7576  164.5703 C.ar    1  UNL1        0.0010
     12 C         138.1598  143.4947  164.7114 C.ar    1  UNL1        0.0114
     13 C         138.8437  142.1625  164.6234 C.ar    1  UNL1        0.0578
     14 CL        138.0467  140.8995  164.7645 Cl      1  UNL1       -0.0822
     15 C         140.3245  142.0933  164.3944 C.ar    1  UNL1        0.0159
     16 C         144.9920  142.2712  156.6975 C.1     1  UNL1       -0.0405
     17 C         143.9327  142.4358  157.7467 C.1     1  UNL1       -0.0582
     18 C         149.9961  141.7524  155.3977 C.3     1  UNL1        0.0521
     19 C         148.5534  141.8473  154.9984 C.ar    1  UNL1        0.0600
     20 C         148.1699  141.7775  153.5500 C.ar    1  UNL1        0.0148
     21 C         146.7272  141.8723  153.1506 C.ar    1  UNL1        0.0034
     22 C         145.6678  142.0369  154.1998 C.ar    1  UNL1        0.0276
     23 C         146.0513  142.1067  155.6482 C.ar    1  UNL1        0.1224
     24 N         147.4941  142.0118  156.0475 N.ar    1  UNL1       -0.2414
@<TRIPOS>BOND
     1    18    19    1
     2    19    20   ar
     3    20    21   ar
     4    21    22   ar
     5    22    23   ar
     6    23    16    1
     7    16    17    3
     8    17     1    1
     9     1     2    2
    10     2     3    1
    11     3     4    1
    12     4     5    1
    13     5     6   am
    14     6     7    2
    15     6     9    1
    16     9    10   ar
    17    10    11   ar
    18    11    12   ar
    19    12    13   ar
    20    13    14    1
    21    13    15   ar
    22     5     8    1
    23    23    24   ar
    24    24    19   ar
    25     8     2    1
    26    15     9   ar
