@<TRIPOS>MOLECULE
*****
 37 40 0 0 0
SMALL
GASTEIGER

@<TRIPOS>ATOM
      1 C         140.4594  136.9197  156.1272 C.3     1  UNL1        0.0437
      2 C         141.6044  137.7770  156.5791 C.3     1  UNL1        0.1368
      3 C         142.0246  137.5054  155.1650 C.3     1  UNL1        0.0437
      4 C         142.8952  138.5399  156.5399 C.3     1  UNL1        0.0643
      5 C         143.3683  139.2767  157.7579 C.3     1  UNL1        0.1022
      6 C         142.5504  139.2506  159.0150 C.ar    1  UNL1        0.0488
      7 C         143.0235  139.9874  160.2329 C.ar    1  UNL1        0.0034
      8 C         142.2056  139.9613  161.4901 C.ar    1  UNL1        0.0177
      9 C         140.9147  139.1983  161.5293 C.ar    1  UNL1        0.0851
     10 N         140.4417  138.4615  160.3114 N.ar    1  UNL1       -0.2119
     11 C         141.2596  138.4877  159.0542 C.ar    1  UNL1        0.2219
     12 O         140.7865  137.7509  157.8362 O.3     1  UNL1       -0.4676
     13 C         140.0969  139.1722  162.7864 C.ar    1  UNL1        0.0284
     14 C         139.0845  140.2484  163.0451 C.ar    1  UNL1        0.0032
     15 C         138.2666  140.2222  164.3023 C.ar    1  UNL1        0.0115
     16 C         138.4612  139.1199  165.3008 C.ar    1  UNL1        0.0585
     17 CL        137.6434  139.0937  166.5579 Cl      1  UNL1       -0.0822
     18 C         139.4735  138.0437  165.0421 C.ar    1  UNL1        0.0228
     19 C         140.2914  138.0698  163.7850 C.ar    1  UNL1        0.0599
     20 CL        141.3037  136.9936  163.5263 Cl      1  UNL1       -0.0822
     21 C         142.6787  140.6980  162.7080 C.ar    1  UNL1        0.0015
     22 C         142.2762  142.1269  162.9236 C.ar    1  UNL1        0.0009
     23 C         142.7492  142.8637  164.1416 C.ar    1  UNL1        0.0114
     24 C         143.6247  142.1716  165.1439 C.ar    1  UNL1        0.0577
     25 CL        144.0978  142.9084  166.3618 Cl      1  UNL1       -0.0822
     26 C         144.0271  140.7428  164.9283 C.ar    1  UNL1        0.0114
     27 C         143.5541  140.0060  163.7103 C.ar    1  UNL1        0.0009
     28 N         144.6592  140.0397  157.7186 N.am    1  UNL1       -0.2974
     29 C         144.6511  141.5138  157.4413 C.2     1  UNL1        0.2865
     30 O         143.3520  142.2250  157.2032 O.2     1  UNL1       -0.2691
     31 H         145.5118  139.5729  157.8749 H       1  UNL1        0.1498
     32 C         145.9420  142.2767  157.4021 C.3     1  UNL1        0.3566
     33 F         146.3251  141.5634  156.1394 F       1  UNL1       -0.1919
     34 F         145.5589  142.9900  158.6647 F       1  UNL1       -0.1919
     35 C         147.2329  143.0396  157.3628 C.3     1  UNL1        0.2138
     36 O         147.9370  143.3886  158.6404 O.3     1  UNL1       -0.3768
     37 H         147.3951  144.0126  159.1482 H       1  UNL1        0.2107
@<TRIPOS>BOND
     1     1     2    1
     2     2     3    1
     3     2     4    1
     4     4     5    1
     5     5    28    1
     6    28    29   am
     7    29    30    2
     8    29    32    1
     9    32    33    1
    10    32    34    1
    11    32    35    1
    12    35    36    1
    13     5     6    1
    14     6     7   ar
    15     7     8   ar
    16     8    21    1
    17    21    22   ar
    18    22    23   ar
    19    23    24   ar
    20    24    25    1
    21    24    26   ar
    22    26    27   ar
    23     8     9   ar
    24     9    13    1
    25    13    14   ar
    26    14    15   ar
    27    15    16   ar
    28    16    17    1
    29    16    18   ar
    30    18    19   ar
    31    19    20    1
    32     9    10   ar
    33    10    11   ar
    34    11    12    1
    35    12     2    1
    36    11     6   ar
    37    27    21   ar
    38    19    13   ar
    39    28    31    1
    40    36    37    1
@<TRIPOS>MOLECULE
*****
 37 40 0 0 0
SMALL
GASTEIGER

@<TRIPOS>ATOM
      1 C         145.6270  141.1017  156.4767 C.3     1  UNL1        0.0437
      2 C         144.3972  141.9535  156.5872 C.3     1  UNL1        0.1368
      3 C         144.7180  142.1464  155.1347 C.3     1  UNL1        0.0437
      4 C         143.2789  142.8722  156.1933 C.3     1  UNL1        0.0643
      5 C         142.2668  143.3022  157.2135 C.3     1  UNL1        0.1022
      6 C         142.3731  142.8135  158.6276 C.ar    1  UNL1        0.0488
      7 C         141.3610  143.2435  159.6478 C.ar    1  UNL1        0.0034
      8 C         141.4672  142.7548  161.0619 C.ar    1  UNL1        0.0177
      9 C         142.5856  141.8359  161.4559 C.ar    1  UNL1        0.0851
     10 N         143.5976  141.4059  160.4358 N.ar    1  UNL1       -0.2119
     11 C         143.4914  141.8947  159.0216 C.ar    1  UNL1        0.2219
     12 O         144.5034  141.4647  158.0014 O.3     1  UNL1       -0.4676
     13 C         142.6918  141.3472  162.8701 C.ar    1  UNL1        0.0284
     14 C         141.9558  140.1107  163.2935 C.ar    1  UNL1        0.0032
     15 C         142.0621  139.6219  164.7077 C.ar    1  UNL1        0.0115
     16 C         142.9043  140.3697  165.6984 C.ar    1  UNL1        0.0585
     17 CL        143.0105  139.8810  167.1125 Cl      1  UNL1       -0.0822
     18 C         143.6403  141.6062  165.2749 C.ar    1  UNL1        0.0228
     19 C         143.5340  142.0950  163.8608 C.ar    1  UNL1        0.0599
     20 CL        144.2700  143.3315  163.4374 Cl      1  UNL1       -0.0822
     21 C         140.4551  143.1848  162.0821 C.ar    1  UNL1        0.0015
     22 C         140.7310  144.3704  162.9588 C.ar    1  UNL1        0.0009
     23 C         139.7189  144.8004  163.9790 C.ar    1  UNL1        0.0114
     24 C         138.4310  144.0448  164.1225 C.ar    1  UNL1        0.0577
     25 CL        137.4189  144.4748  165.1427 Cl      1  UNL1       -0.0822
     26 C         138.1552  142.8593  163.2459 C.ar    1  UNL1        0.0114
     27 C         139.1673  142.4293  162.2257 C.ar    1  UNL1        0.0009
     28 N         141.1485  144.2211  156.8195 N.am    1  UNL1       -0.2974
     29 C         141.2715  145.6970  157.0569 C.2     1  UNL1        0.2865
     30 O         142.5128  146.2542  157.6884 O.2     1  UNL1       -0.2691
     31 H         140.3338  143.8554  156.4051 H       1  UNL1        0.1498
     32 C         140.1531  146.6158  156.6629 C.3     1  UNL1        0.3566
     33 F         139.6369  146.5912  158.0711 F       1  UNL1       -0.1919
     34 F         140.6694  146.6405  155.2548 F       1  UNL1       -0.1919
     35 C         139.0348  147.5346  156.2690 C.3     1  UNL1        0.2138
     36 O         138.5612  148.5913  157.2224 O.3     1  UNL1       -0.3768
     37 H         138.1595  148.1702  157.9984 H       1  UNL1        0.2107
@<TRIPOS>BOND
     1     1     2    1
     2     2     3    1
     3     2     4    1
     4     4     5    1
     5     5    28    1
     6    28    29   am
     7    29    30    2
     8    29    32    1
     9    32    33    1
    10    32    34    1
    11    32    35    1
    12    35    36    1
    13     5     6    1
    14     6     7   ar
    15     7     8   ar
    16     8    21    1
    17    21    22   ar
    18    22    23   ar
    19    23    24   ar
    20    24    25    1
    21    24    26   ar
    22    26    27   ar
    23     8     9   ar
    24     9    13    1
    25    13    14   ar
    26    14    15   ar
    27    15    16   ar
    28    16    17    1
    29    16    18   ar
    30    18    19   ar
    31    19    20    1
    32     9    10   ar
    33    10    11   ar
    34    11    12    1
    35    12     2    1
    36    11     6   ar
    37    27    21   ar
    38    19    13   ar
    39    28    31    1
    40    36    37    1
@<TRIPOS>MOLECULE
*****
 37 40 0 0 0
SMALL
GASTEIGER

@<TRIPOS>ATOM
      1 C         137.8996  138.8039  154.0464 C.3     1  UNL1        0.0437
      2 C         137.8924  140.2146  154.5564 C.3     1  UNL1        0.1368
      3 C         137.5773  140.4587  153.1103 C.3     1  UNL1        0.0437
      4 C         137.7758  141.7100  154.5642 C.3     1  UNL1        0.0643
      5 C         137.9768  142.4713  155.8409 C.3     1  UNL1        0.1022
      6 C         138.2944  141.7372  157.1098 C.ar    1  UNL1        0.0488
      7 C         138.4953  142.4986  158.3865 C.ar    1  UNL1        0.0034
      8 C         138.8129  141.7645  159.6555 C.ar    1  UNL1        0.0177
      9 C         138.9296  140.2690  159.6477 C.ar    1  UNL1        0.0851
     10 N         138.7286  139.5077  158.3710 N.ar    1  UNL1       -0.2119
     11 C         138.4110  140.2418  157.1021 C.ar    1  UNL1        0.2219
     12 O         138.2100  139.4805  155.8254 O.3     1  UNL1       -0.4676
     13 C         139.2472  139.5350  160.9167 C.ar    1  UNL1        0.0284
     14 C         138.1364  139.0412  161.7956 C.ar    1  UNL1        0.0032
     15 C         138.4541  138.3071  163.0646 C.ar    1  UNL1        0.0115
     16 C         139.8824  138.0668  163.4546 C.ar    1  UNL1        0.0585
     17 CL        140.2000  137.3327  164.7235 Cl      1  UNL1       -0.0822
     18 C         140.9931  138.5606  162.5757 C.ar    1  UNL1        0.0228
     19 C         140.6755  139.2946  161.3067 C.ar    1  UNL1        0.0599
     20 CL        141.7862  139.7884  160.4278 Cl      1  UNL1       -0.0822
     21 C         139.0139  142.5259  160.9322 C.ar    1  UNL1        0.0015
     22 C         137.8510  142.7797  161.8450 C.ar    1  UNL1        0.0009
     23 C         138.0520  143.5411  163.1217 C.ar    1  UNL1        0.0114
     24 C         139.4159  144.0485  163.4856 C.ar    1  UNL1        0.0577
     25 CL        139.6169  144.8099  164.7623 Cl      1  UNL1       -0.0822
     26 C         140.5787  143.7947  162.5727 C.ar    1  UNL1        0.0114
     27 C         140.3777  143.0333  161.2960 C.ar    1  UNL1        0.0009
     28 N         137.8601  143.9668  155.8486 N.am    1  UNL1       -0.2974
     29 C         139.0786  144.8152  155.6355 C.2     1  UNL1        0.2865
     30 O         140.4138  144.1682  155.4147 O.2     1  UNL1       -0.2691
     31 H         136.9838  144.3915  155.9936 H       1  UNL1        0.1498
     32 C         138.9620  146.3107  155.6432 C.3     1  UNL1        0.3566
     33 F         137.6688  146.2137  154.8894 F       1  UNL1       -0.1919
     34 F         140.2552  146.4077  156.3970 F       1  UNL1       -0.1919
     35 C         138.8453  147.8061  155.6509 C.3     1  UNL1        0.2138
     36 O         138.6504  148.5365  156.9465 O.3     1  UNL1       -0.3768
     37 H         137.7866  148.3044  157.3218 H       1  UNL1        0.2107
@<TRIPOS>BOND
     1     1     2    1
     2     2     3    1
     3     2     4    1
     4     4     5    1
     5     5    28    1
     6    28    29   am
     7    29    30    2
     8    29    32    1
     9    32    33    1
    10    32    34    1
    11    32    35    1
    12    35    36    1
    13     5     6    1
    14     6     7   ar
    15     7     8   ar
    16     8    21    1
    17    21    22   ar
    18    22    23   ar
    19    23    24   ar
    20    24    25    1
    21    24    26   ar
    22    26    27   ar
    23     8     9   ar
    24     9    13    1
    25    13    14   ar
    26    14    15   ar
    27    15    16   ar
    28    16    17    1
    29    16    18   ar
    30    18    19   ar
    31    19    20    1
    32     9    10   ar
    33    10    11   ar
    34    11    12    1
    35    12     2    1
    36    11     6   ar
    37    27    21   ar
    38    19    13   ar
    39    28    31    1
    40    36    37    1
@<TRIPOS>MOLECULE
*****
 37 40 0 0 0
SMALL
GASTEIGER

@<TRIPOS>ATOM
      1 C         136.7091  143.2494  155.2431 C.3     1  UNL1        0.0437
      2 C         137.4004  141.9837  155.6557 C.3     1  UNL1        0.1368
      3 C         137.1495  141.6832  154.2076 C.3     1  UNL1        0.0437
      4 C         138.0045  140.6137  155.5654 C.3     1  UNL1        0.0643
      5 C         138.6195  139.9837  156.7799 C.3     1  UNL1        0.1022
      6 C         138.6303  140.7236  158.0846 C.ar    1  UNL1        0.0488
      7 C         139.2453  140.0936  159.2991 C.ar    1  UNL1        0.0034
      8 C         139.2561  140.8336  160.6038 C.ar    1  UNL1        0.0177
      9 C         138.6520  142.2036  160.6941 C.ar    1  UNL1        0.0851
     10 N         138.0370  142.8336  159.4796 N.ar    1  UNL1       -0.2119
     11 C         138.0262  142.0936  158.1749 C.ar    1  UNL1        0.2219
     12 O         137.4113  142.7236  156.9604 O.3     1  UNL1       -0.4676
     13 C         138.6628  142.9436  161.9988 C.ar    1  UNL1        0.0284
     14 C         137.5920  142.6847  163.0168 C.ar    1  UNL1        0.0032
     15 C         137.6029  143.4247  164.3215 C.ar    1  UNL1        0.0115
     16 C         138.6846  144.4235  164.6083 C.ar    1  UNL1        0.0585
     17 CL        138.6954  145.1635  165.9130 Cl      1  UNL1       -0.0822
     18 C         139.7554  144.6824  163.5903 C.ar    1  UNL1        0.0228
     19 C         139.7446  143.9425  162.2856 C.ar    1  UNL1        0.0599
     20 CL        140.8154  144.2013  161.2676 Cl      1  UNL1       -0.0822
     21 C         139.8711  140.2035  161.8182 C.ar    1  UNL1        0.0015
     22 C         141.2906  140.5167  162.1882 C.ar    1  UNL1        0.0009
     23 C         141.9056  139.8867  163.4027 C.ar    1  UNL1        0.0114
     24 C         141.1010  138.9435  164.2472 C.ar    1  UNL1        0.0577
     25 CL        141.7160  138.3135  165.4616 Cl      1  UNL1       -0.0822
     26 C         139.6815  138.6303  163.8771 C.ar    1  UNL1        0.0114
     27 C         139.0666  139.2604  162.6627 C.ar    1  UNL1        0.0009
     28 N         139.2236  138.6136  156.6896 N.am    1  UNL1       -0.2974
     29 C         140.6768  138.4554  156.3533 C.2     1  UNL1        0.2865
     30 O         141.5260  139.6672  156.1073 O.2     1  UNL1       -0.2691
     31 H         138.6663  137.8183  156.8511 H       1  UNL1        0.1498
     32 C         141.2810  137.0854  156.2630 C.3     1  UNL1        0.3566
     33 F         142.5368  137.5970  156.9041 F       1  UNL1       -0.1919
     34 F         140.0251  136.5738  155.6218 F       1  UNL1       -0.1919
     35 C         141.8851  135.7154  156.1727 C.3     1  UNL1        0.2138
     36 O         141.0900  134.5816  155.5964 O.3     1  UNL1       -0.3768
     37 H         140.3358  134.3886  156.1750 H       1  UNL1        0.2107
@<TRIPOS>BOND
     1     1     2    1
     2     2     3    1
     3     2     4    1
     4     4     5    1
     5     5    28    1
     6    28    29   am
     7    29    30    2
     8    29    32    1
     9    32    33    1
    10    32    34    1
    11    32    35    1
    12    35    36    1
    13     5     6    1
    14     6     7   ar
    15     7     8   ar
    16     8    21    1
    17    21    22   ar
    18    22    23   ar
    19    23    24   ar
    20    24    25    1
    21    24    26   ar
    22    26    27   ar
    23     8     9   ar
    24     9    13    1
    25    13    14   ar
    26    14    15   ar
    27    15    16   ar
    28    16    17    1
    29    16    18   ar
    30    18    19   ar
    31    19    20    1
    32     9    10   ar
    33    10    11   ar
    34    11    12    1
    35    12     2    1
    36    11     6   ar
    37    27    21   ar
    38    19    13   ar
    39    28    31    1
    40    36    37    1
@<TRIPOS>MOLECULE
*****
 37 40 0 0 0
SMALL
GASTEIGER

@<TRIPOS>ATOM
      1 C         136.3594  142.4598  155.4401 C.3     1  UNL1        0.0437
      2 C         137.5944  141.6601  155.7322 C.3     1  UNL1        0.1368
      3 C         137.3597  141.2648  154.3043 C.3     1  UNL1        0.0437
      4 C         138.7479  140.7231  155.5284 C.3     1  UNL1        0.0643
      5 C         139.7071  140.4592  156.6510 C.3     1  UNL1        0.1022
      6 C         139.5129  141.1322  157.9773 C.ar    1  UNL1        0.0488
      7 C         140.4721  140.8682  159.0999 C.ar    1  UNL1        0.0034
      8 C         140.2779  141.5412  160.4263 C.ar    1  UNL1        0.0177
      9 C         139.1244  142.4782  160.6301 C.ar    1  UNL1        0.0851
     10 N         138.1651  142.7422  159.5075 N.ar    1  UNL1       -0.2119
     11 C         138.3594  142.0691  158.1811 C.ar    1  UNL1        0.2219
     12 O         137.4002  142.3331  157.0586 O.3     1  UNL1       -0.4676
     13 C         138.9302  143.1512  161.9565 C.ar    1  UNL1        0.0284
     14 C         139.6214  144.4505  162.2467 C.ar    1  UNL1        0.0032
     15 C         139.4271  145.1235  163.5731 C.ar    1  UNL1        0.0115
     16 C         138.5417  144.4972  164.6093 C.ar    1  UNL1        0.0585
     17 CL        138.3475  145.1702  165.9357 Cl      1  UNL1       -0.0822
     18 C         137.8505  143.1980  164.3192 C.ar    1  UNL1        0.0228
     19 C         138.0447  142.5250  162.9928 C.ar    1  UNL1        0.0599
     20 CL        137.3535  141.2258  162.7026 Cl      1  UNL1       -0.0822
     21 C         141.2372  141.2773  161.5488 C.ar    1  UNL1        0.0015
     22 C         142.4779  142.1090  161.6863 C.ar    1  UNL1        0.0009
     23 C         143.4372  141.8451  162.8089 C.ar    1  UNL1        0.0114
     24 C         143.1557  140.7494  163.7940 C.ar    1  UNL1        0.0577
     25 CL        144.1149  140.4854  164.9166 Cl      1  UNL1       -0.0822
     26 C         141.9150  139.9177  163.6565 C.ar    1  UNL1        0.0114
     27 C         140.9557  140.1817  162.5339 C.ar    1  UNL1        0.0009
     28 N         140.8606  139.5222  156.4471 N.am    1  UNL1       -0.2974
     29 C         140.7364  138.0817  156.8466 C.2     1  UNL1        0.2865
     30 O         139.4588  137.5782  157.4499 O.2     1  UNL1       -0.2691
     31 H         141.6992  139.8527  156.0511 H       1  UNL1        0.1498
     32 C         141.8900  137.1447  156.6427 C.3     1  UNL1        0.3566
     33 F         142.8208  138.1624  157.2325 F       1  UNL1       -0.1919
     34 F         140.9592  136.1271  156.0529 F       1  UNL1       -0.1919
     35 C         143.0435  136.2078  156.4389 C.3     1  UNL1        0.2138
     36 O         144.3290  136.7164  155.8570 O.3     1  UNL1       -0.3768
     37 H         144.1812  136.9938  154.9393 H       1  UNL1        0.2107
@<TRIPOS>BOND
     1     1     2    1
     2     2     3    1
     3     2     4    1
     4     4     5    1
     5     5    28    1
     6    28    29   am
     7    29    30    2
     8    29    32    1
     9    32    33    1
    10    32    34    1
    11    32    35    1
    12    35    36    1
    13     5     6    1
    14     6     7   ar
    15     7     8   ar
    16     8    21    1
    17    21    22   ar
    18    22    23   ar
    19    23    24   ar
    20    24    25    1
    21    24    26   ar
    22    26    27   ar
    23     8     9   ar
    24     9    13    1
    25    13    14   ar
    26    14    15   ar
    27    15    16   ar
    28    16    17    1
    29    16    18   ar
    30    18    19   ar
    31    19    20    1
    32     9    10   ar
    33    10    11   ar
    34    11    12    1
    35    12     2    1
    36    11     6   ar
    37    27    21   ar
    38    19    13   ar
    39    28    31    1
    40    36    37    1
@<TRIPOS>MOLECULE
*****
 37 40 0 0 0
SMALL
GASTEIGER

@<TRIPOS>ATOM
      1 C         139.4018  139.1932  154.3175 C.3     1  UNL1        0.0437
      2 C         140.3642  138.3913  155.1427 C.3     1  UNL1        0.1368
      3 C         140.6320  137.8058  153.7879 C.3     1  UNL1        0.0437
      4 C         141.4196  137.3862  155.4974 C.3     1  UNL1        0.0643
      5 C         141.8729  137.2450  156.9203 C.3     1  UNL1        0.1022
      6 C         141.2708  138.1090  157.9884 C.ar    1  UNL1        0.0488
      7 C         141.7242  137.9678  159.4113 C.ar    1  UNL1        0.0034
      8 C         141.1221  138.8318  160.4795 C.ar    1  UNL1        0.0177
      9 C         140.0667  139.8370  160.1248 C.ar    1  UNL1        0.0851
     10 N         139.6134  139.9782  158.7019 N.ar    1  UNL1       -0.2119
     11 C         140.2155  139.1141  157.6337 C.ar    1  UNL1        0.2219
     12 O         139.7622  139.2553  156.2109 O.3     1  UNL1       -0.4676
     13 C         139.4647  140.7010  161.1930 C.ar    1  UNL1        0.0284
     14 C         140.0609  142.0435  161.4964 C.ar    1  UNL1        0.0032
     15 C         139.4588  142.9075  162.5646 C.ar    1  UNL1        0.0115
     16 C         138.2605  142.4289  163.3294 C.ar    1  UNL1        0.0585
     17 CL        137.6585  143.2929  164.3976 Cl      1  UNL1       -0.0822
     18 C         137.6642  141.0864  163.0261 C.ar    1  UNL1        0.0228
     19 C         138.2663  140.2224  161.9579 C.ar    1  UNL1        0.0599
     20 CL        137.6700  138.8798  161.6545 Cl      1  UNL1       -0.0822
     21 C         141.5754  138.6906  161.9024 C.ar    1  UNL1        0.0015
     22 C         142.6666  139.5727  162.4329 C.ar    1  UNL1        0.0009
     23 C         143.1199  139.4315  163.8558 C.ar    1  UNL1        0.0114
     24 C         142.4821  138.4083  164.7481 C.ar    1  UNL1        0.0577
     25 CL        142.9354  138.2671  166.1710 Cl      1  UNL1       -0.0822
     26 C         141.3910  137.5262  164.2176 C.ar    1  UNL1        0.0114
     27 C         140.9377  137.6674  162.7947 C.ar    1  UNL1        0.0009
     28 N         142.9283  136.2398  157.2749 N.am    1  UNL1       -0.2974
     29 C         142.8113  134.8260  156.7879 C.2     1  UNL1        0.2865
     30 O         141.6390  134.4172  155.9462 O.2     1  UNL1       -0.2691
     31 H         143.6978  136.5081  157.8274 H       1  UNL1        0.1498
     32 C         143.8668  133.8207  157.1425 C.3     1  UNL1        0.3566
     33 F         144.0120  133.4620  155.6934 F       1  UNL1       -0.1919
     34 F         143.7215  134.1794  158.5917 F       1  UNL1       -0.1919
     35 C         144.9221  132.8156  157.4971 C.3     1  UNL1        0.2138
     36 O         145.6593  132.0877  156.4124 O.3     1  UNL1       -0.3768
     37 H         145.0429  131.5131  155.9319 H       1  UNL1        0.2107
@<TRIPOS>BOND
     1     1     2    1
     2     2     3    1
     3     2     4    1
     4     4     5    1
     5     5    28    1
     6    28    29   am
     7    29    30    2
     8    29    32    1
     9    32    33    1
    10    32    34    1
    11    32    35    1
    12    35    36    1
    13     5     6    1
    14     6     7   ar
    15     7     8   ar
    16     8    21    1
    17    21    22   ar
    18    22    23   ar
    19    23    24   ar
    20    24    25    1
    21    24    26   ar
    22    26    27   ar
    23     8     9   ar
    24     9    13    1
    25    13    14   ar
    26    14    15   ar
    27    15    16   ar
    28    16    17    1
    29    16    18   ar
    30    18    19   ar
    31    19    20    1
    32     9    10   ar
    33    10    11   ar
    34    11    12    1
    35    12     2    1
    36    11     6   ar
    37    27    21   ar
    38    19    13   ar
    39    28    31    1
    40    36    37    1
@<TRIPOS>MOLECULE
*****
 37 40 0 0 0
SMALL
GASTEIGER

@<TRIPOS>ATOM
      1 C         135.7769  140.6443  156.4564 C.3     1  UNL1        0.0437
      2 C         137.2768  140.6628  156.4507 C.3     1  UNL1        0.1368
      3 C         137.0076  140.9101  154.9958 C.3     1  UNL1        0.0437
      4 C         138.6832  140.7673  155.9397 C.3     1  UNL1        0.0643
      5 C         139.8378  140.6180  156.8855 C.3     1  UNL1        0.1022
      6 C         139.5860  140.3642  158.3423 C.ar    1  UNL1        0.0488
      7 C         140.7406  140.2149  159.2881 C.ar    1  UNL1        0.0034
      8 C         140.4889  139.9612  160.7448 C.ar    1  UNL1        0.0177
      9 C         139.0824  139.8568  161.2559 C.ar    1  UNL1        0.0851
     10 N         137.9278  140.0061  160.3101 N.ar    1  UNL1       -0.2119
     11 C         138.1796  140.2598  158.8532 C.ar    1  UNL1        0.2219
     12 O         137.0250  140.4091  157.9074 O.3     1  UNL1       -0.4676
     13 C         138.8307  139.6031  162.7126 C.ar    1  UNL1        0.0284
     14 C         138.9453  138.2122  163.2625 C.ar    1  UNL1        0.0032
     15 C         138.6935  137.9585  164.7193 C.ar    1  UNL1        0.0115
     16 C         138.3271  139.0956  165.6262 C.ar    1  UNL1        0.0585
     17 CL        138.0753  138.8419  167.0830 Cl      1  UNL1       -0.0822
     18 C         138.2125  140.4865  165.0764 C.ar    1  UNL1        0.0228
     19 C         138.4642  140.7402  163.6196 C.ar    1  UNL1        0.0599
     20 CL        138.3496  142.1311  163.0698 Cl      1  UNL1       -0.0822
     21 C         141.6435  139.8119  161.6907 C.ar    1  UNL1        0.0015
     22 C         142.3970  138.5165  161.7558 C.ar    1  UNL1        0.0009
     23 C         143.5516  138.3672  162.7016 C.ar    1  UNL1        0.0114
     24 C         143.9528  139.5133  163.5823 C.ar    1  UNL1        0.0577
     25 CL        145.1074  139.3640  164.5281 Cl      1  UNL1       -0.0822
     26 C         143.1993  140.8087  163.5171 C.ar    1  UNL1        0.0114
     27 C         142.0447  140.9580  162.5713 C.ar    1  UNL1        0.0009
     28 N         141.2442  140.7224  156.3745 N.am    1  UNL1       -0.2974
     29 C         142.0058  139.4811  156.0153 C.2     1  UNL1        0.2865
     30 O         141.3610  138.1353  156.1671 O.2     1  UNL1       -0.2691
     31 H         141.6674  141.6057  156.2749 H       1  UNL1        0.1498
     32 C         143.4123  139.5855  155.5043 C.3     1  UNL1        0.3566
     33 F         142.8970  139.6351  154.0965 F       1  UNL1       -0.1919
     34 F         143.9275  139.5360  156.9121 F       1  UNL1       -0.1919
     35 C         144.8186  139.6900  154.9933 C.3     1  UNL1        0.2138
     36 O         145.9613  139.7993  155.9588 O.3     1  UNL1       -0.3768
     37 H         145.9000  140.6402  156.4384 H       1  UNL1        0.2107
@<TRIPOS>BOND
     1     1     2    1
     2     2     3    1
     3     2     4    1
     4     4     5    1
     5     5    28    1
     6    28    29   am
     7    29    30    2
     8    29    32    1
     9    32    33    1
    10    32    34    1
    11    32    35    1
    12    35    36    1
    13     5     6    1
    14     6     7   ar
    15     7     8   ar
    16     8    21    1
    17    21    22   ar
    18    22    23   ar
    19    23    24   ar
    20    24    25    1
    21    24    26   ar
    22    26    27   ar
    23     8     9   ar
    24     9    13    1
    25    13    14   ar
    26    14    15   ar
    27    15    16   ar
    28    16    17    1
    29    16    18   ar
    30    18    19   ar
    31    19    20    1
    32     9    10   ar
    33    10    11   ar
    34    11    12    1
    35    12     2    1
    36    11     6   ar
    37    27    21   ar
    38    19    13   ar
    39    28    31    1
    40    36    37    1
@<TRIPOS>MOLECULE
*****
 37 40 0 0 0
SMALL
GASTEIGER

@<TRIPOS>ATOM
      1 C         139.0217  137.2470  155.8208 C.3     1  UNL1        0.0437
      2 C         140.1406  138.1953  156.1354 C.3     1  UNL1        0.1368
      3 C         140.3211  138.0623  154.6522 C.3     1  UNL1        0.0437
      4 C         141.3222  139.0973  155.9349 C.3     1  UNL1        0.0643
      5 C         141.9347  139.8030  157.1082 C.3     1  UNL1        0.1022
      6 C         141.3656  139.6067  158.4821 C.ar    1  UNL1        0.0488
      7 C         141.9782  140.3124  159.6555 C.ar    1  UNL1        0.0034
      8 C         141.4091  140.1161  161.0294 C.ar    1  UNL1        0.0177
      9 C         140.2275  139.2140  161.2300 C.ar    1  UNL1        0.0851
     10 N         139.6150  138.5083  160.0566 N.ar    1  UNL1       -0.2119
     11 C         140.1841  138.7047  158.6826 C.ar    1  UNL1        0.2219
     12 O         139.5716  137.9990  157.5093 O.3     1  UNL1       -0.4676
     13 C         139.6585  139.0177  162.6038 C.ar    1  UNL1        0.0284
     14 C         140.1087  137.8592  163.4436 C.ar    1  UNL1        0.0032
     15 C         139.5396  137.6629  164.8176 C.ar    1  UNL1        0.0115
     16 C         138.5203  138.6251  165.3517 C.ar    1  UNL1        0.0585
     17 CL        137.9513  138.4288  166.7256 Cl      1  UNL1       -0.0822
     18 C         138.0701  139.7836  164.5119 C.ar    1  UNL1        0.0228
     19 C         138.6391  139.9799  163.1380 C.ar    1  UNL1        0.0599
     20 CL        138.1889  141.1383  162.2982 Cl      1  UNL1       -0.0822
     21 C         142.0216  140.8218  162.2028 C.ar    1  UNL1        0.0015
     22 C         143.0591  140.1296  163.0362 C.ar    1  UNL1        0.0009
     23 C         143.6716  140.8353  164.2096 C.ar    1  UNL1        0.0114
     24 C         143.2467  142.2332  164.5495 C.ar    1  UNL1        0.0577
     25 CL        143.8592  142.9389  165.7229 Cl      1  UNL1       -0.0822
     26 C         142.2093  142.9253  163.7160 C.ar    1  UNL1        0.0114
     27 C         141.5967  142.2196  162.5427 C.ar    1  UNL1        0.0009
     28 N         143.1163  140.7050  156.9077 N.am    1  UNL1       -0.2974
     29 C         144.4312  140.1322  156.4687 C.2     1  UNL1        0.2865
     30 O         144.5646  138.6573  156.2303 O.2     1  UNL1       -0.2691
     31 H         143.0288  141.6731  157.0641 H       1  UNL1        0.1498
     32 C         145.6128  141.0342  156.2681 C.3     1  UNL1        0.3566
     33 F         145.8425  140.4322  154.9136 F       1  UNL1       -0.1919
     34 F         145.3832  141.6363  157.6226 F       1  UNL1       -0.1919
     35 C         146.7944  141.9362  156.0675 C.3     1  UNL1        0.2138
     36 O         146.6010  143.3098  155.4967 O.3     1  UNL1       -0.3768
     37 H         146.2937  143.2385  154.5795 H       1  UNL1        0.2107
@<TRIPOS>BOND
     1     1     2    1
     2     2     3    1
     3     2     4    1
     4     4     5    1
     5     5    28    1
     6    28    29   am
     7    29    30    2
     8    29    32    1
     9    32    33    1
    10    32    34    1
    11    32    35    1
    12    35    36    1
    13     5     6    1
    14     6     7   ar
    15     7     8   ar
    16     8    21    1
    17    21    22   ar
    18    22    23   ar
    19    23    24   ar
    20    24    25    1
    21    24    26   ar
    22    26    27   ar
    23     8     9   ar
    24     9    13    1
    25    13    14   ar
    26    14    15   ar
    27    15    16   ar
    28    16    17    1
    29    16    18   ar
    30    18    19   ar
    31    19    20    1
    32     9    10   ar
    33    10    11   ar
    34    11    12    1
    35    12     2    1
    36    11     6   ar
    37    27    21   ar
    38    19    13   ar
    39    28    31    1
    40    36    37    1
@<TRIPOS>MOLECULE
*****
 37 40 0 0 0
SMALL
GASTEIGER

@<TRIPOS>ATOM
      1 C         141.1778  145.8090  155.1203 C.3     1  UNL1        0.0437
      2 C         140.0522  144.9608  155.6338 C.3     1  UNL1        0.1368
      3 C         139.5555  145.2406  154.2463 C.3     1  UNL1        0.0437
      4 C         138.7541  144.2098  155.6655 C.3     1  UNL1        0.0643
      5 C         138.3437  143.4736  156.9063 C.3     1  UNL1        0.1022
      6 C         139.2312  143.4884  158.1154 C.ar    1  UNL1        0.0488
      7 C         138.8208  142.7522  159.3561 C.ar    1  UNL1        0.0034
      8 C         139.7083  142.7670  160.5652 C.ar    1  UNL1        0.0177
      9 C         141.0064  143.5180  160.5336 C.ar    1  UNL1        0.0851
     10 N         141.4169  144.2542  159.2928 N.ar    1  UNL1       -0.2119
     11 C         140.5293  144.2394  158.0837 C.ar    1  UNL1        0.2219
     12 O         140.9397  144.9756  156.8429 O.3     1  UNL1       -0.4676
     13 C         141.8940  143.5328  161.7427 C.ar    1  UNL1        0.0284
     14 C         142.9414  142.4733  161.9173 C.ar    1  UNL1        0.0032
     15 C         143.8290  142.4882  163.1265 C.ar    1  UNL1        0.0115
     16 C         143.6692  143.5625  164.1610 C.ar    1  UNL1        0.0585
     17 CL        144.5567  143.5773  165.3701 Cl      1  UNL1       -0.0822
     18 C         142.6218  144.6220  163.9864 C.ar    1  UNL1        0.0228
     19 C         141.7342  144.6072  162.7773 C.ar    1  UNL1        0.0599
     20 CL        140.6869  145.6667  162.6027 Cl      1  UNL1       -0.0822
     21 C         139.2978  142.0308  161.8060 C.ar    1  UNL1        0.0015
     22 C         138.5014  142.7328  162.8658 C.ar    1  UNL1        0.0009
     23 C         138.0910  141.9966  164.1065 C.ar    1  UNL1        0.0114
     24 C         138.4769  140.5584  164.2876 C.ar    1  UNL1        0.0577
     25 CL        138.0664  139.8222  165.5283 Cl      1  UNL1       -0.0822
     26 C         139.2733  139.8565  163.2278 C.ar    1  UNL1        0.0114
     27 C         139.6837  140.5927  161.9871 C.ar    1  UNL1        0.0009
     28 N         137.0455  142.7226  156.9379 N.am    1  UNL1       -0.2974
     29 C         136.8596  141.5096  156.0753 C.2     1  UNL1        0.2865
     30 O         137.9717  141.0476  155.1810 O.2     1  UNL1       -0.2691
     31 H         136.3156  143.0258  157.5248 H       1  UNL1        0.1498
     32 C         135.5615  140.7586  156.1069 C.3     1  UNL1        0.3566
     33 F         135.8065  140.3957  157.5416 F       1  UNL1       -0.1919
     34 F         135.3165  141.1215  154.6723 F       1  UNL1       -0.1919
     35 C         134.2634  140.0076  156.1386 C.3     1  UNL1        0.2138
     36 O         133.8483  139.2797  157.3827 O.3     1  UNL1       -0.3768
     37 H         134.4631  138.5483  157.5498 H       1  UNL1        0.2107
@<TRIPOS>BOND
     1     1     2    1
     2     2     3    1
     3     2     4    1
     4     4     5    1
     5     5    28    1
     6    28    29   am
     7    29    30    2
     8    29    32    1
     9    32    33    1
    10    32    34    1
    11    32    35    1
    12    35    36    1
    13     5     6    1
    14     6     7   ar
    15     7     8   ar
    16     8    21    1
    17    21    22   ar
    18    22    23   ar
    19    23    24   ar
    20    24    25    1
    21    24    26   ar
    22    26    27   ar
    23     8     9   ar
    24     9    13    1
    25    13    14   ar
    26    14    15   ar
    27    15    16   ar
    28    16    17    1
    29    16    18   ar
    30    18    19   ar
    31    19    20    1
    32     9    10   ar
    33    10    11   ar
    34    11    12    1
    35    12     2    1
    36    11     6   ar
    37    27    21   ar
    38    19    13   ar
    39    28    31    1
    40    36    37    1
