@<TRIPOS>MOLECULE
*****
 32 36 0 0 0
SMALL
GASTEIGER

@<TRIPOS>ATOM
      1 O         140.6862  136.9595  163.0618 O.2     1  UNL1       -0.2668
      2 C         140.2828  138.3788  163.3315 C.2     1  UNL1        0.2806
      3 N         140.2458  139.3741  162.2098 N.am    1  UNL1       -0.2999
      4 H         139.9811  140.3056  162.3868 H       1  UNL1        0.1498
      5 C         139.9164  138.8030  164.7229 C.ar    1  UNL1        0.2014
      6 C         138.6902  138.2415  165.3797 C.ar    1  UNL1        0.0843
      7 C         138.3238  138.6656  166.7710 C.ar    1  UNL1        0.2018
      8 O         137.0977  138.1042  167.4278 O.2     1  UNL1       -0.2864
      9 C         139.1835  139.6513  167.5056 C.ar    1  UNL1        0.0737
     10 C         138.8170  140.0754  168.8969 C.ar    1  UNL1        0.0085
     11 C         139.6767  141.0610  169.6314 C.ar    1  UNL1        0.0299
     12 C         140.9028  141.6224  168.9746 C.ar    1  UNL1        0.1432
     13 F         141.7625  142.6081  169.7092 F       1  UNL1       -0.2041
     14 C         141.2693  141.1983  167.5833 C.ar    1  UNL1        0.0672
     15 C         140.4096  140.2127  166.8488 C.ar    1  UNL1        0.1508
     16 O         140.7760  139.7886  165.4574 O.2     1  UNL1       -0.4486
     17 C         140.6122  138.9500  160.8185 C.3     1  UNL1        0.0747
     18 C         142.0538  138.7739  160.4432 C.3     1  UNL1        0.0369
     19 C         142.4202  138.3498  159.0519 C.3     1  UNL1        0.0741
     20 N         141.3450  138.1018  158.0357 N.3     1  UNL1       -0.2689
     21 C         139.9034  138.2779  158.4110 C.3     1  UNL1        0.0741
     22 C         139.5370  138.7020  159.8024 C.3     1  UNL1        0.0369
     23 C         141.7114  137.6777  156.6444 C.3     1  UNL1        0.0992
     24 C         141.9606  136.2296  156.3429 C.ar    1  UNL1       -0.0059
     25 C         141.1297  135.5243  155.3123 C.ar    1  UNL1        0.0002
     26 C         141.3790  134.0762  155.0107 C.ar    1  UNL1        0.0372
     27 C         142.4591  133.3334  155.7397 C.ar    1  UNL1        0.1454
     28 O         142.9323  131.9125  155.6560 O.2     1  UNL1       -0.4504
     29 C         144.0557  131.7396  156.6349 C.ar    1  UNL1        0.1796
     30 C         144.2768  133.0537  157.3236 C.ar    1  UNL1        0.0437
     31 C         143.2900  134.0387  156.7703 C.ar    1  UNL1        0.0374
     32 C         143.0408  135.4868  157.0719 C.ar    1  UNL1        0.0002
@<TRIPOS>BOND
     1     1     2    2
     2     2     3   am
     3     3    17    1
     4    17    18    1
     5    18    19    1
     6    19    20    1
     7    20    23    1
     8    23    24    1
     9    24    25   ar
    10    25    26   ar
    11    26    27   ar
    12    27    28   ar
    13    28    29   ar
    14    29    30   ar
    15    30    31   ar
    16    31    32   ar
    17    20    21    1
    18    21    22    1
    19     2     5    1
    20     5     6   ar
    21     6     7   ar
    22     7     8    2
    23     7     9   ar
    24     9    10   ar
    25    10    11   ar
    26    11    12   ar
    27    12    13    1
    28    12    14   ar
    29    14    15   ar
    30    15    16   ar
    31    22    17    1
    32    16     5   ar
    33    32    24   ar
    34    15     9   ar
    35    31    27   ar
    36     3     4    1
@<TRIPOS>MOLECULE
*****
 32 36 0 0 0
SMALL
GASTEIGER

@<TRIPOS>ATOM
      1 O         144.0899  138.9098  159.9032 O.2     1  UNL1       -0.2668
      2 C         143.3303  140.1146  159.4327 C.2     1  UNL1        0.2806
      3 N         142.6433  140.0945  158.0994 N.am    1  UNL1       -0.2999
      4 H         142.1448  140.8853  157.7906 H       1  UNL1        0.1498
      5 C         143.2576  141.3395  160.2955 C.ar    1  UNL1        0.2014
      6 C         142.5490  142.5651  159.7997 C.ar    1  UNL1        0.0843
      7 C         142.4763  143.7900  160.6624 C.ar    1  UNL1        0.2018
      8 O         141.7677  145.0156  160.1666 O.2     1  UNL1       -0.2864
      9 C         143.1123  143.7893  162.0210 C.ar    1  UNL1        0.0737
     10 C         143.0396  145.0142  162.8837 C.ar    1  UNL1        0.0085
     11 C         143.6755  145.0135  164.2422 C.ar    1  UNL1        0.0299
     12 C         144.3841  143.7879  164.7380 C.ar    1  UNL1        0.1432
     13 F         145.0201  143.7873  166.0966 F       1  UNL1       -0.2041
     14 C         144.4568  142.5631  163.8753 C.ar    1  UNL1        0.0672
     15 C         143.8209  142.5638  162.5168 C.ar    1  UNL1        0.1508
     16 O         143.8936  141.3388  161.6540 O.2     1  UNL1       -0.4486
     17 C         142.7160  138.8697  157.2366 C.3     1  UNL1        0.0747
     18 C         143.7708  138.7610  156.1758 C.3     1  UNL1        0.0369
     19 C         143.8435  137.5362  155.3130 C.3     1  UNL1        0.0741
     20 N         142.8612  136.4199  155.5110 N.3     1  UNL1       -0.2689
     21 C         141.8063  136.5286  156.5719 C.3     1  UNL1        0.0741
     22 C         141.7337  137.7535  157.4347 C.3     1  UNL1        0.0369
     23 C         142.9339  135.1951  154.6483 C.3     1  UNL1        0.0992
     24 C         142.9620  133.8342  155.2786 C.ar    1  UNL1       -0.0059
     25 C         141.9133  132.8219  154.9246 C.ar    1  UNL1        0.0002
     26 C         141.9414  131.4610  155.5549 C.ar    1  UNL1        0.0372
     27 C         143.0182  131.1126  156.5393 C.ar    1  UNL1        0.1454
     28 O         143.3009  129.8612  157.3165 O.2     1  UNL1       -0.4504
     29 C         144.5243  130.1001  158.1509 C.ar    1  UNL1        0.1796
     30 C         144.9977  131.4992  157.8894 C.ar    1  UNL1        0.0437
     31 C         144.0669  132.1249  156.8933 C.ar    1  UNL1        0.0374
     32 C         144.0388  133.4858  156.2630 C.ar    1  UNL1        0.0002
@<TRIPOS>BOND
     1     1     2    2
     2     2     3   am
     3     3    17    1
     4    17    18    1
     5    18    19    1
     6    19    20    1
     7    20    23    1
     8    23    24    1
     9    24    25   ar
    10    25    26   ar
    11    26    27   ar
    12    27    28   ar
    13    28    29   ar
    14    29    30   ar
    15    30    31   ar
    16    31    32   ar
    17    20    21    1
    18    21    22    1
    19     2     5    1
    20     5     6   ar
    21     6     7   ar
    22     7     8    2
    23     7     9   ar
    24     9    10   ar
    25    10    11   ar
    26    11    12   ar
    27    12    13    1
    28    12    14   ar
    29    14    15   ar
    30    15    16   ar
    31    22    17    1
    32    16     5   ar
    33    32    24   ar
    34    15     9   ar
    35    31    27   ar
    36     3     4    1
@<TRIPOS>MOLECULE
*****
 32 36 0 0 0
SMALL
GASTEIGER

@<TRIPOS>ATOM
      1 O         144.0157  139.3041  158.8975 O.2     1  UNL1       -0.2668
      2 C         142.7603  138.4909  159.0090 C.2     1  UNL1        0.2806
      3 N         141.8404  138.6876  160.1773 N.am    1  UNL1       -0.2999
      4 H         141.0164  138.1538  160.2505 H       1  UNL1        0.1498
      5 C         142.4247  137.4807  157.9520 C.ar    1  UNL1        0.2014
      6 C         141.2160  137.6755  157.0853 C.ar    1  UNL1        0.0843
      7 C         140.8803  136.6654  156.0284 C.ar    1  UNL1        0.2018
      8 O         139.6716  136.8601  155.1617 O.2     1  UNL1       -0.2864
      9 C         141.7534  135.4606  155.8381 C.ar    1  UNL1        0.0737
     10 C         141.4178  134.4505  154.7812 C.ar    1  UNL1        0.0085
     11 C         142.2909  133.2458  154.5910 C.ar    1  UNL1        0.0299
     12 C         143.4996  133.0510  155.4576 C.ar    1  UNL1        0.1432
     13 F         144.3727  131.8462  155.2674 F       1  UNL1       -0.2041
     14 C         143.8352  134.0611  156.5146 C.ar    1  UNL1        0.0672
     15 C         142.9621  135.2658  156.7048 C.ar    1  UNL1        0.1508
     16 O         143.2977  136.2760  157.7618 O.2     1  UNL1       -0.4486
     17 C         142.1759  139.6977  161.2343 C.3     1  UNL1        0.0747
     18 C         141.6470  141.0974  161.1290 C.3     1  UNL1        0.0369
     19 C         141.9825  142.1074  162.1859 C.3     1  UNL1        0.0741
     20 N         142.8471  141.7178  163.3482 N.3     1  UNL1       -0.2689
     21 C         143.3760  140.3181  163.4535 C.3     1  UNL1        0.0741
     22 C         143.0404  139.3081  162.3965 C.3     1  UNL1        0.0369
     23 C         143.1826  142.7279  164.4051 C.3     1  UNL1        0.0992
     24 C         142.5586  142.6256  165.7653 C.ar    1  UNL1       -0.0059
     25 C         141.0667  142.6783  165.9120 C.ar    1  UNL1        0.0002
     26 C         140.4427  142.5761  167.2722 C.ar    1  UNL1        0.0372
     27 C         141.3106  142.4212  168.4858 C.ar    1  UNL1        0.1454
     28 O         140.9835  142.2963  169.9443 O.2     1  UNL1       -0.4504
     29 C         142.2732  142.1664  170.6991 C.ar    1  UNL1        0.1796
     30 C         143.3974  142.2110  169.7071 C.ar    1  UNL1        0.0437
     31 C         142.8024  142.3685  168.3391 C.ar    1  UNL1        0.0374
     32 C         143.4264  142.4707  166.9789 C.ar    1  UNL1        0.0002
@<TRIPOS>BOND
     1     1     2    2
     2     2     3   am
     3     3    17    1
     4    17    18    1
     5    18    19    1
     6    19    20    1
     7    20    23    1
     8    23    24    1
     9    24    25   ar
    10    25    26   ar
    11    26    27   ar
    12    27    28   ar
    13    28    29   ar
    14    29    30   ar
    15    30    31   ar
    16    31    32   ar
    17    20    21    1
    18    21    22    1
    19     2     5    1
    20     5     6   ar
    21     6     7   ar
    22     7     8    2
    23     7     9   ar
    24     9    10   ar
    25    10    11   ar
    26    11    12   ar
    27    12    13    1
    28    12    14   ar
    29    14    15   ar
    30    15    16   ar
    31    22    17    1
    32    16     5   ar
    33    32    24   ar
    34    15     9   ar
    35    31    27   ar
    36     3     4    1
@<TRIPOS>MOLECULE
*****
 32 36 0 0 0
SMALL
GASTEIGER

@<TRIPOS>ATOM
      1 O         144.0512  139.0032  159.7182 O.2     1  UNL1       -0.2668
      2 C         142.7182  138.3184  159.6553 C.2     1  UNL1        0.2806
      3 N         141.7972  138.3598  160.8385 N.am    1  UNL1       -0.2999
      4 H         140.9223  137.9103  160.7973 H       1  UNL1        0.1498
      5 C         142.3061  137.5920  158.4092 C.ar    1  UNL1        0.2014
      6 C         141.1463  138.0908  157.5992 C.ar    1  UNL1        0.0843
      7 C         140.7342  137.3645  156.3532 C.ar    1  UNL1        0.2018
      8 O         139.5744  137.8633  155.5432 O.2     1  UNL1       -0.2864
      9 C         141.4820  136.1394  155.9170 C.ar    1  UNL1        0.0737
     10 C         141.0699  135.4132  154.6710 C.ar    1  UNL1        0.0085
     11 C         141.8176  134.1882  154.2349 C.ar    1  UNL1        0.0299
     12 C         142.9774  133.6894  155.0449 C.ar    1  UNL1        0.1432
     13 F         143.7251  132.4643  154.6088 F       1  UNL1       -0.2041
     14 C         143.3895  134.4157  156.2910 C.ar    1  UNL1        0.0672
     15 C         142.6418  135.6407  156.7270 C.ar    1  UNL1        0.1508
     16 O         143.0538  136.3670  157.9731 O.2     1  UNL1       -0.4486
     17 C         142.2092  139.0861  162.0846 C.3     1  UNL1        0.0747
     18 C         142.8378  138.3323  163.2189 C.3     1  UNL1        0.0369
     19 C         143.2498  139.0586  164.4650 C.3     1  UNL1        0.0741
     20 N         143.0332  140.5387  164.5768 N.3     1  UNL1       -0.2689
     21 C         142.4046  141.2925  163.4424 C.3     1  UNL1        0.0741
     22 C         141.9926  140.5661  162.1963 C.3     1  UNL1        0.0369
     23 C         143.4452  141.2650  165.8228 C.3     1  UNL1        0.0992
     24 C         142.5663  141.2282  167.0378 C.ar    1  UNL1       -0.0059
     25 C         142.2553  139.9182  167.6991 C.ar    1  UNL1        0.0002
     26 C         141.3764  139.8814  168.9140 C.ar    1  UNL1        0.0372
     27 C         140.8084  141.1545  169.4677 C.ar    1  UNL1        0.1454
     28 O         139.9178  141.4285  170.6431 O.2     1  UNL1       -0.4504
     29 C         139.6783  142.9079  170.7083 C.ar    1  UNL1        0.1796
     30 C         140.4209  143.5481  169.5732 C.ar    1  UNL1        0.0437
     31 C         141.1193  142.4644  168.8064 C.ar    1  UNL1        0.0374
     32 C         141.9983  142.5012  167.5914 C.ar    1  UNL1        0.0002
@<TRIPOS>BOND
     1     1     2    2
     2     2     3   am
     3     3    17    1
     4    17    18    1
     5    18    19    1
     6    19    20    1
     7    20    23    1
     8    23    24    1
     9    24    25   ar
    10    25    26   ar
    11    26    27   ar
    12    27    28   ar
    13    28    29   ar
    14    29    30   ar
    15    30    31   ar
    16    31    32   ar
    17    20    21    1
    18    21    22    1
    19     2     5    1
    20     5     6   ar
    21     6     7   ar
    22     7     8    2
    23     7     9   ar
    24     9    10   ar
    25    10    11   ar
    26    11    12   ar
    27    12    13    1
    28    12    14   ar
    29    14    15   ar
    30    15    16   ar
    31    22    17    1
    32    16     5   ar
    33    32    24   ar
    34    15     9   ar
    35    31    27   ar
    36     3     4    1
@<TRIPOS>MOLECULE
*****
 32 36 0 0 0
SMALL
GASTEIGER

@<TRIPOS>ATOM
      1 O         142.3127  138.7317  157.8733 O.2     1  UNL1       -0.2668
      2 C         142.5892  137.3103  158.2644 C.2     1  UNL1        0.2806
      3 N         142.8648  136.9670  159.6983 N.am    1  UNL1       -0.2999
      4 H         143.0463  136.0340  159.9551 H       1  UNL1        0.1498
      5 C         142.5901  136.2320  157.2216 C.ar    1  UNL1        0.2014
      6 C         141.7297  136.3689  156.0005 C.ar    1  UNL1        0.0843
      7 C         141.7306  135.2907  154.9577 C.ar    1  UNL1        0.2018
      8 O         140.8702  135.4276  153.7366 O.2     1  UNL1       -0.2864
      9 C         142.5919  134.0756  155.1359 C.ar    1  UNL1        0.0737
     10 C         142.5927  132.9974  154.0931 C.ar    1  UNL1        0.0085
     11 C         143.4540  131.7823  154.2714 C.ar    1  UNL1        0.0299
     12 C         144.3144  131.6454  155.4924 C.ar    1  UNL1        0.1432
     13 F         145.1757  130.4303  155.6706 F       1  UNL1       -0.2041
     14 C         144.3135  132.7236  156.5352 C.ar    1  UNL1        0.0672
     15 C         143.4523  133.9387  156.3570 C.ar    1  UNL1        0.1508
     16 O         143.4514  135.0169  157.3998 O.2     1  UNL1       -0.4486
     17 C         142.8640  138.0452  160.7412 C.3     1  UNL1        0.0747
     18 C         144.1605  138.6361  161.2101 C.3     1  UNL1        0.0369
     19 C         144.1596  139.7143  162.2529 C.3     1  UNL1        0.0741
     20 N         142.8622  140.2015  162.8269 N.3     1  UNL1       -0.2689
     21 C         141.5657  139.6106  162.3579 C.3     1  UNL1        0.0741
     22 C         141.5666  138.5324  161.3151 C.3     1  UNL1        0.0369
     23 C         142.8613  141.2797  163.8697 C.3     1  UNL1        0.0992
     24 C         142.8683  140.9157  165.3248 C.ar    1  UNL1       -0.0059
     25 C         142.8771  139.4736  165.7372 C.ar    1  UNL1        0.0002
     26 C         142.8841  139.1096  167.1923 C.ar    1  UNL1        0.0372
     27 C         142.8824  140.1877  168.2351 C.ar    1  UNL1        0.1454
     28 O         142.8881  140.1343  169.7341 O.2     1  UNL1       -0.4504
     29 C         142.8828  141.5434  170.2483 C.ar    1  UNL1        0.1796
     30 C         142.8739  142.4678  169.0670 C.ar    1  UNL1        0.0437
     31 C         142.8737  141.6299  167.8228 C.ar    1  UNL1        0.0374
     32 C         142.8666  141.9939  166.3676 C.ar    1  UNL1        0.0002
@<TRIPOS>BOND
     1     1     2    2
     2     2     3   am
     3     3    17    1
     4    17    18    1
     5    18    19    1
     6    19    20    1
     7    20    23    1
     8    23    24    1
     9    24    25   ar
    10    25    26   ar
    11    26    27   ar
    12    27    28   ar
    13    28    29   ar
    14    29    30   ar
    15    30    31   ar
    16    31    32   ar
    17    20    21    1
    18    21    22    1
    19     2     5    1
    20     5     6   ar
    21     6     7   ar
    22     7     8    2
    23     7     9   ar
    24     9    10   ar
    25    10    11   ar
    26    11    12   ar
    27    12    13    1
    28    12    14   ar
    29    14    15   ar
    30    15    16   ar
    31    22    17    1
    32    16     5   ar
    33    32    24   ar
    34    15     9   ar
    35    31    27   ar
    36     3     4    1
@<TRIPOS>MOLECULE
*****
 32 36 0 0 0
SMALL
GASTEIGER

@<TRIPOS>ATOM
      1 O         142.7801  141.6192  162.9372 O.2     1  UNL1       -0.2668
      2 C         142.1178  140.5900  163.8043 C.2     1  UNL1        0.2806
      3 N         141.6574  139.2921  163.2095 N.am    1  UNL1       -0.2999
      4 H         141.2227  138.6166  163.7786 H       1  UNL1        0.1498
      5 C         141.9158  140.8584  165.2662 C.ar    1  UNL1        0.2014
      6 C         142.9336  141.6519  166.0307 C.ar    1  UNL1        0.0843
      7 C         142.7317  141.9204  167.4926 C.ar    1  UNL1        0.2018
      8 O         143.7495  142.7138  168.2570 O.2     1  UNL1       -0.2864
      9 C         141.5118  141.3954  168.1900 C.ar    1  UNL1        0.0737
     10 C         141.3099  141.6639  169.6519 C.ar    1  UNL1        0.0085
     11 C         140.0901  141.1389  170.3493 C.ar    1  UNL1        0.0299
     12 C         139.0722  140.3454  169.5849 C.ar    1  UNL1        0.1432
     13 F         137.8523  139.8205  170.2824 F       1  UNL1       -0.2041
     14 C         139.2741  140.0770  168.1230 C.ar    1  UNL1        0.0672
     15 C         140.4940  140.6019  167.4256 C.ar    1  UNL1        0.1508
     16 O         140.6960  140.3335  165.9637 O.2     1  UNL1       -0.4486
     17 C         141.8594  139.0236  161.7477 C.3     1  UNL1        0.0747
     18 C         143.2407  138.7893  161.2120 C.3     1  UNL1        0.0369
     19 C         143.4427  138.5208  159.7501 C.3     1  UNL1        0.0741
     20 N         142.2633  138.4866  158.8239 N.3     1  UNL1       -0.2689
     21 C         140.8819  138.7210  159.3595 C.3     1  UNL1        0.0741
     22 C         140.6800  138.9895  160.8215 C.3     1  UNL1        0.0369
     23 C         142.4653  138.2181  157.3620 C.3     1  UNL1        0.0992
     24 C         142.2632  136.8347  156.8186 C.ar    1  UNL1       -0.0059
     25 C         141.2500  136.5934  155.7392 C.ar    1  UNL1        0.0002
     26 C         141.0480  135.2100  155.1958 C.ar    1  UNL1        0.0372
     27 C         141.8591  134.0678  155.7319 C.ar    1  UNL1        0.1454
     28 O         141.8805  132.6064  155.3943 O.2     1  UNL1       -0.4504
     29 C         142.9069  131.9445  156.2651 C.ar    1  UNL1        0.1796
     30 C         143.5199  132.9967  157.1409 C.ar    1  UNL1        0.0437
     31 C         142.8723  134.3090  156.8113 C.ar    1  UNL1        0.0374
     32 C         143.0743  135.6925  157.3547 C.ar    1  UNL1        0.0002
@<TRIPOS>BOND
     1     1     2    2
     2     2     3   am
     3     3    17    1
     4    17    18    1
     5    18    19    1
     6    19    20    1
     7    20    23    1
     8    23    24    1
     9    24    25   ar
    10    25    26   ar
    11    26    27   ar
    12    27    28   ar
    13    28    29   ar
    14    29    30   ar
    15    30    31   ar
    16    31    32   ar
    17    20    21    1
    18    21    22    1
    19     2     5    1
    20     5     6   ar
    21     6     7   ar
    22     7     8    2
    23     7     9   ar
    24     9    10   ar
    25    10    11   ar
    26    11    12   ar
    27    12    13    1
    28    12    14   ar
    29    14    15   ar
    30    15    16   ar
    31    22    17    1
    32    16     5   ar
    33    32    24   ar
    34    15     9   ar
    35    31    27   ar
    36     3     4    1
@<TRIPOS>MOLECULE
*****
 32 36 0 0 0
SMALL
GASTEIGER

@<TRIPOS>ATOM
      1 O         143.2036  141.3652  160.0047 O.2     1  UNL1       -0.2668
      2 C         144.3917  142.1675  159.5637 C.2     1  UNL1        0.2806
      3 N         145.1952  142.9341  160.5720 N.am    1  UNL1       -0.2999
      4 H         145.9750  143.4607  160.2825 H       1  UNL1        0.1498
      5 C         144.7765  142.2032  158.1143 C.ar    1  UNL1        0.2014
      6 C         143.7135  142.2521  157.0571 C.ar    1  UNL1        0.0843
      7 C         144.0982  142.2878  155.6077 C.ar    1  UNL1        0.2018
      8 O         143.0352  142.3367  154.5506 O.2     1  UNL1       -0.2864
      9 C         145.5460  142.2746  155.2155 C.ar    1  UNL1        0.0737
     10 C         145.9307  142.3103  153.7661 C.ar    1  UNL1        0.0085
     11 C         147.3785  142.2971  153.3739 C.ar    1  UNL1        0.0299
     12 C         148.4415  142.2482  154.4311 C.ar    1  UNL1        0.1432
     13 F         149.8893  142.2350  154.0389 F       1  UNL1       -0.2041
     14 C         148.0568  142.2125  155.8805 C.ar    1  UNL1        0.0672
     15 C         146.6090  142.2257  156.2726 C.ar    1  UNL1        0.1508
     16 O         146.2242  142.1900  157.7221 O.2     1  UNL1       -0.4486
     17 C         144.8104  142.8985  162.0214 C.3     1  UNL1        0.0747
     18 C         145.2974  141.7841  162.8994 C.3     1  UNL1        0.0369
     19 C         144.9127  141.7484  164.3488 C.3     1  UNL1        0.0741
     20 N         144.0409  142.8272  164.9201 N.3     1  UNL1       -0.2689
     21 C         143.5539  143.9416  164.0421 C.3     1  UNL1        0.0741
     22 C         143.9387  143.9772  162.5927 C.3     1  UNL1        0.0369
     23 C         143.6562  142.7915  166.3695 C.3     1  UNL1        0.0992
     24 C         142.4791  141.9744  166.8131 C.ar    1  UNL1       -0.0059
     25 C         141.8428  141.0003  165.8665 C.ar    1  UNL1        0.0002
     26 C         140.6657  140.1832  166.3102 C.ar    1  UNL1        0.0372
     27 C         140.1249  140.3402  167.7004 C.ar    1  UNL1        0.1454
     28 O         138.9850  139.6768  168.4149 O.2     1  UNL1       -0.4504
     29 C         138.9168  140.2410  169.8031 C.ar    1  UNL1        0.1796
     30 C         140.0146  141.2531  169.9466 C.ar    1  UNL1        0.0437
     31 C         140.7612  141.3144  168.6470 C.ar    1  UNL1        0.0374
     32 C         141.9383  142.1315  168.2034 C.ar    1  UNL1        0.0002
@<TRIPOS>BOND
     1     1     2    2
     2     2     3   am
     3     3    17    1
     4    17    18    1
     5    18    19    1
     6    19    20    1
     7    20    23    1
     8    23    24    1
     9    24    25   ar
    10    25    26   ar
    11    26    27   ar
    12    27    28   ar
    13    28    29   ar
    14    29    30   ar
    15    30    31   ar
    16    31    32   ar
    17    20    21    1
    18    21    22    1
    19     2     5    1
    20     5     6   ar
    21     6     7   ar
    22     7     8    2
    23     7     9   ar
    24     9    10   ar
    25    10    11   ar
    26    11    12   ar
    27    12    13    1
    28    12    14   ar
    29    14    15   ar
    30    15    16   ar
    31    22    17    1
    32    16     5   ar
    33    32    24   ar
    34    15     9   ar
    35    31    27   ar
    36     3     4    1
@<TRIPOS>MOLECULE
*****
 32 36 0 0 0
SMALL
GASTEIGER

@<TRIPOS>ATOM
      1 O         142.0307  138.7277  158.1373 O.2     1  UNL1       -0.2668
      2 C         142.6219  137.3725  158.3895 C.2     1  UNL1        0.2806
      3 N         143.2668  137.0694  159.7095 N.am    1  UNL1       -0.2999
      4 H         143.6549  136.1798  159.8750 H       1  UNL1        0.1498
      5 C         142.5683  136.3202  157.3218 C.ar    1  UNL1        0.2014
      6 C         141.6527  136.4909  156.1460 C.ar    1  UNL1        0.0843
      7 C         141.5990  135.4388  155.0783 C.ar    1  UNL1        0.2018
      8 O         140.6834  135.6094  153.9025 O.2     1  UNL1       -0.2864
      9 C         142.4609  134.2159  155.1864 C.ar    1  UNL1        0.0737
     10 C         142.4072  133.1637  154.1187 C.ar    1  UNL1        0.0085
     11 C         143.2692  131.9409  154.2268 C.ar    1  UNL1        0.0299
     12 C         144.1848  131.7702  155.4026 C.ar    1  UNL1        0.1432
     13 F         145.0468  130.5473  155.5106 F       1  UNL1       -0.2041
     14 C         144.2385  132.8224  156.4703 C.ar    1  UNL1        0.0672
     15 C         143.3766  134.0452  156.3622 C.ar    1  UNL1        0.1508
     16 O         143.4302  135.0974  157.4299 O.2     1  UNL1       -0.4486
     17 C         143.3205  138.1215  160.7772 C.3     1  UNL1        0.0747
     18 C         142.4952  137.9710  162.0206 C.3     1  UNL1        0.0369
     19 C         142.5489  139.0232  163.0884 C.3     1  UNL1        0.0741
     20 N         143.4279  140.2259  162.9126 N.3     1  UNL1       -0.2689
     21 C         144.2532  140.3764  161.6692 C.3     1  UNL1        0.0741
     22 C         144.1995  139.3242  160.6014 C.3     1  UNL1        0.0369
     23 C         143.4816  141.2780  163.9804 C.3     1  UNL1        0.0992
     24 C         142.3942  142.3070  164.0748 C.ar    1  UNL1       -0.0059
     25 C         142.7170  143.7591  163.8827 C.ar    1  UNL1        0.0002
     26 C         141.6296  144.7880  163.9771 C.ar    1  UNL1        0.0372
     27 C         140.2194  144.3648  164.2636 C.ar    1  UNL1        0.1454
     28 O         138.9477  145.1460  164.4134 O.2     1  UNL1       -0.4504
     29 C         137.8389  144.1767  164.6981 C.ar    1  UNL1        0.1796
     30 C         138.4253  142.7963  164.7242 C.ar    1  UNL1        0.0437
     31 C         139.8966  142.9126  164.4557 C.ar    1  UNL1        0.0374
     32 C         140.9840  141.8837  164.3612 C.ar    1  UNL1        0.0002
@<TRIPOS>BOND
     1     1     2    2
     2     2     3   am
     3     3    17    1
     4    17    18    1
     5    18    19    1
     6    19    20    1
     7    20    23    1
     8    23    24    1
     9    24    25   ar
    10    25    26   ar
    11    26    27   ar
    12    27    28   ar
    13    28    29   ar
    14    29    30   ar
    15    30    31   ar
    16    31    32   ar
    17    20    21    1
    18    21    22    1
    19     2     5    1
    20     5     6   ar
    21     6     7   ar
    22     7     8    2
    23     7     9   ar
    24     9    10   ar
    25    10    11   ar
    26    11    12   ar
    27    12    13    1
    28    12    14   ar
    29    14    15   ar
    30    15    16   ar
    31    22    17    1
    32    16     5   ar
    33    32    24   ar
    34    15     9   ar
    35    31    27   ar
    36     3     4    1
@<TRIPOS>MOLECULE
*****
 32 36 0 0 0
SMALL
GASTEIGER

@<TRIPOS>ATOM
      1 O         140.9506  144.1693  160.4605 O.2     1  UNL1       -0.2668
      2 C         139.9212  144.0289  159.3785 C.2     1  UNL1        0.2806
      3 N         138.7893  143.0583  159.5415 N.am    1  UNL1       -0.2999
      4 H         138.1137  142.9662  158.8313 H       1  UNL1        0.1498
      5 C         140.0238  144.8593  158.1335 C.ar    1  UNL1        0.2014
      6 C         140.8164  144.3597  156.9620 C.ar    1  UNL1        0.0843
      7 C         140.9190  145.1900  155.7170 C.ar    1  UNL1        0.2018
      8 O         141.7115  144.6904  154.5456 O.2     1  UNL1       -0.2864
      9 C         140.2290  146.5199  155.6434 C.ar    1  UNL1        0.0737
     10 C         140.3316  147.3501  154.3984 C.ar    1  UNL1        0.0085
     11 C         139.6416  148.6800  154.3248 C.ar    1  UNL1        0.0299
     12 C         138.8490  149.1795  155.4963 C.ar    1  UNL1        0.1432
     13 F         138.1590  150.5094  155.4226 F       1  UNL1       -0.2041
     14 C         138.7464  148.3493  156.7413 C.ar    1  UNL1        0.0672
     15 C         139.4364  147.0194  156.8148 C.ar    1  UNL1        0.1508
     16 O         139.3338  146.1891  158.0599 O.2     1  UNL1       -0.4486
     17 C         138.6867  142.2280  160.7865 C.3     1  UNL1        0.0747
     18 C         137.9246  142.7435  161.9712 C.3     1  UNL1        0.0369
     19 C         137.8220  141.9132  163.2161 C.3     1  UNL1        0.0741
     20 N         138.4815  140.5673  163.2765 N.3     1  UNL1       -0.2689
     21 C         139.2436  140.0517  162.0918 C.3     1  UNL1        0.0741
     22 C         139.3461  140.8821  160.8468 C.3     1  UNL1        0.0369
     23 C         138.3789  139.7369  164.5214 C.3     1  UNL1        0.0992
     24 C         139.1746  140.1075  165.7378 C.ar    1  UNL1       -0.0059
     25 C         138.7404  139.6306  167.0920 C.ar    1  UNL1        0.0002
     26 C         139.5361  140.0012  168.3084 C.ar    1  UNL1        0.0372
     27 C         140.7660  140.8487  168.1705 C.ar    1  UNL1        0.1454
     28 O         141.7441  141.3701  169.1812 O.2     1  UNL1       -0.4504
     29 C         142.7828  142.1693  168.4515 C.ar    1  UNL1        0.1796
     30 C         142.4467  142.1418  166.9900 C.ar    1  UNL1        0.0437
     31 C         141.2002  141.3256  166.8163 C.ar    1  UNL1        0.0374
     32 C         140.4045  140.9550  165.5999 C.ar    1  UNL1        0.0002
@<TRIPOS>BOND
     1     1     2    2
     2     2     3   am
     3     3    17    1
     4    17    18    1
     5    18    19    1
     6    19    20    1
     7    20    23    1
     8    23    24    1
     9    24    25   ar
    10    25    26   ar
    11    26    27   ar
    12    27    28   ar
    13    28    29   ar
    14    29    30   ar
    15    30    31   ar
    16    31    32   ar
    17    20    21    1
    18    21    22    1
    19     2     5    1
    20     5     6   ar
    21     6     7   ar
    22     7     8    2
    23     7     9   ar
    24     9    10   ar
    25    10    11   ar
    26    11    12   ar
    27    12    13    1
    28    12    14   ar
    29    14    15   ar
    30    15    16   ar
    31    22    17    1
    32    16     5   ar
    33    32    24   ar
    34    15     9   ar
    35    31    27   ar
    36     3     4    1
