@<TRIPOS>MOLECULE
*****
 30 31 0 0 0
SMALL
GASTEIGER

@<TRIPOS>ATOM
      1 C         140.5906  138.4647  161.3179 C.3     1  UNL1        0.0703
      2 N         139.4216  137.6720  161.8231 N.3     1  UNL1       -0.2971
      3 H         139.3812  136.8190  161.2654 H       1  UNL1        0.1233
      4 C         138.0455  138.2687  161.8021 C.3     1  UNL1        0.0733
      5 C         137.8388  139.6589  161.2783 C.3     1  UNL1        0.0435
      6 C         137.9292  143.1632  164.1000 C.ar    1  UNL1        0.1724
      7 C         137.7972  141.7696  164.6388 C.ar    1  UNL1        0.0397
      8 C         137.7670  140.6015  163.6982 C.ar    1  UNL1       -0.0009
      9 C         137.8689  140.8270  162.2188 C.ar    1  UNL1       -0.0176
     10 C         138.0009  142.2206  161.6800 C.ar    1  UNL1        0.0358
     11 C         138.0311  143.3887  162.6205 C.ar    1  UNL1        0.1721
     12 C         139.2315  144.6911  165.7489 C.3     1  UNL1        0.2526
     13 O         137.9593  144.3313  165.0405 O.3     1  UNL1       -0.4684
     14 O         138.1631  144.7823  162.0816 O.3     1  UNL1       -0.4684
     15 C         139.4971  145.4680  162.0940 C.3     1  UNL1        0.2526
     16 C         141.3257  139.3891  162.2427 C.3     1  UNL1        0.0383
     17 C         141.8252  138.8864  163.5647 C.3     1  UNL1        0.0911
     18 N         141.6954  139.7419  164.7900 N.am    1  UNL1       -0.3008
     19 C         140.5836  139.4913  165.7653 C.2     1  UNL1        0.2459
     20 O         139.6017  138.3853  165.5154 O.2     1  UNL1       -0.2701
     21 H         142.3399  140.4678  164.9540 H       1  UNL1        0.1497
     22 C         140.4538  140.3468  166.9906 C.ar    1  UNL1        0.0538
     23 C         139.6388  139.8693  168.1558 C.ar    1  UNL1        0.0108
     24 C         139.5090  140.7248  169.3811 C.ar    1  UNL1        0.0754
     25 C         140.1942  142.0578  169.4412 C.ar    1  UNL1        0.2901
     26 C         141.0093  142.5353  168.2759 C.ar    1  UNL1        0.0754
     27 C         141.1391  141.6798  167.0506 C.ar    1  UNL1        0.0108
     28 N         140.0645  142.9132  170.6664 N.pl3   1  UNL1        0.0809
     29 O         139.7562  144.3751  170.5313 O.2     1  UNL1        0.0415
     30 O         140.2429  142.3070  172.0268 O.co2   1  UNL1       -0.5760
@<TRIPOS>UNITY_ATOM_ATTR
28 1
charge 1
30 1
charge -1
@<TRIPOS>BOND
     1    12    13    1
     2    13     6    1
     3     6     7   ar
     4     7     8   ar
     5     8     9   ar
     6     9     5    1
     7     5     4    1
     8     4     2    1
     9     2     1    1
    10     1    16    1
    11    16    17    1
    12    17    18    1
    13    18    19   am
    14    19    20    2
    15    19    22    1
    16    22    23   ar
    17    23    24   ar
    18    24    25   ar
    19    25    28    1
    20    28    29    2
    21    28    30    1
    22    25    26   ar
    23    26    27   ar
    24     9    10   ar
    25    10    11   ar
    26    11    14    1
    27    14    15    1
    28    11     6   ar
    29    27    22   ar
    30     2     3    1
    31    18    21    1
@<TRIPOS>MOLECULE
*****
 30 31 0 0 0
SMALL
GASTEIGER

@<TRIPOS>ATOM
      1 C         140.8984  137.8509  162.8908 C.3     1  UNL1        0.0703
      2 N         140.0815  137.7416  164.1442 N.3     1  UNL1       -0.2971
      3 H         139.8805  136.7507  164.2791 H       1  UNL1        0.1233
      4 C         138.7733  138.4675  164.2525 C.3     1  UNL1        0.0733
      5 C         138.6384  139.6350  165.1845 C.3     1  UNL1        0.0435
      6 C         138.8616  143.8330  163.5792 C.ar    1  UNL1        0.1724
      7 C         139.3973  143.5230  164.9456 C.ar    1  UNL1        0.0397
      8 C         139.3229  142.1237  165.4806 C.ar    1  UNL1       -0.0009
      9 C         138.7128  141.0343  164.6494 C.ar    1  UNL1       -0.0176
     10 C         138.1771  141.3443  163.2831 C.ar    1  UNL1        0.0358
     11 C         138.2515  142.7436  162.7480 C.ar    1  UNL1        0.1721
     12 C         140.0725  145.6345  162.1516 C.3     1  UNL1        0.2526
     13 O         138.9361  145.2323  163.0441 O.3     1  UNL1       -0.4684
     14 O         137.7158  143.0536  161.3816 O.3     1  UNL1       -0.4684
     15 C         138.5268  142.7201  160.1646 C.3     1  UNL1        0.2526
     16 C         142.3860  138.0224  162.9777 C.3     1  UNL1        0.0383
     17 C         142.9663  139.3473  163.3748 C.3     1  UNL1        0.0911
     18 N         142.3906  140.1001  164.5376 N.am    1  UNL1       -0.3008
     19 C         142.7349  139.6924  165.9395 C.2     1  UNL1        0.2459
     20 O         143.6548  138.5320  166.1786 O.2     1  UNL1       -0.2701
     21 H         141.7868  140.8617  164.3807 H       1  UNL1        0.1497
     22 C         142.1592  140.4451  167.1023 C.ar    1  UNL1        0.0538
     23 C         141.0283  139.8554  167.8916 C.ar    1  UNL1        0.0108
     24 C         140.4526  140.6081  169.0544 C.ar    1  UNL1        0.0754
     25 C         141.0078  141.9505  169.4278 C.ar    1  UNL1        0.2901
     26 C         142.1388  142.5403  168.6384 C.ar    1  UNL1        0.0754
     27 C         142.7145  141.7876  167.4756 C.ar    1  UNL1        0.0108
     28 N         140.4321  142.7032  170.5905 N.pl3   1  UNL1        0.0809
     29 O         140.3889  142.0672  171.9484 O.2     1  UNL1        0.0415
     30 O         139.8997  144.0919  170.3955 O.co2   1  UNL1       -0.5760
@<TRIPOS>UNITY_ATOM_ATTR
28 1
charge 1
30 1
charge -1
@<TRIPOS>BOND
     1    12    13    1
     2    13     6    1
     3     6     7   ar
     4     7     8   ar
     5     8     9   ar
     6     9     5    1
     7     5     4    1
     8     4     2    1
     9     2     1    1
    10     1    16    1
    11    16    17    1
    12    17    18    1
    13    18    19   am
    14    19    20    2
    15    19    22    1
    16    22    23   ar
    17    23    24   ar
    18    24    25   ar
    19    25    28    1
    20    28    29    2
    21    28    30    1
    22    25    26   ar
    23    26    27   ar
    24     9    10   ar
    25    10    11   ar
    26    11    14    1
    27    14    15    1
    28    11     6   ar
    29    27    22   ar
    30     2     3    1
    31    18    21    1
@<TRIPOS>MOLECULE
*****
 30 31 0 0 0
SMALL
GASTEIGER

@<TRIPOS>ATOM
      1 C         139.9545  144.9215  162.9200 C.3     1  UNL1        0.0703
      2 N         139.5481  145.0744  164.3558 N.3     1  UNL1       -0.2971
      3 H         140.3623  144.8304  164.9198 H       1  UNL1        0.1233
      4 C         138.3939  144.2838  164.8968 C.3     1  UNL1        0.0733
      5 C         137.5807  143.4199  163.9790 C.3     1  UNL1        0.0435
      6 C         138.8875  139.2015  163.1146 C.ar    1  UNL1        0.1724
      7 C         138.7428  140.1866  161.9927 C.ar    1  UNL1        0.0397
      8 C         138.3073  141.5928  162.2809 C.ar    1  UNL1       -0.0009
      9 C         138.0163  142.0138  163.6909 C.ar    1  UNL1       -0.0176
     10 C         138.1610  141.0286  164.8127 C.ar    1  UNL1        0.0358
     11 C         138.5965  139.6225  164.5245 C.ar    1  UNL1        0.1721
     12 C         140.6720  137.3204  163.2790 C.3     1  UNL1        0.2526
     13 O         139.3230  137.7953  162.8264 O.3     1  UNL1       -0.4684
     14 O         138.7412  138.6373  165.6465 O.3     1  UNL1       -0.4684
     15 C         137.7971  138.6831  166.8111 C.3     1  UNL1        0.2526
     16 C         141.4062  144.8095  162.5592 C.3     1  UNL1        0.0383
     17 C         142.3060  143.9014  163.3437 C.3     1  UNL1        0.0911
     18 N         141.9583  143.5390  164.7572 N.am    1  UNL1       -0.3008
     19 C         141.6537  142.1140  165.1129 C.2     1  UNL1        0.2459
     20 O         141.6968  141.0513  164.0552 O.2     1  UNL1       -0.2701
     21 H         141.9300  144.2365  165.4514 H       1  UNL1        0.1497
     22 C         141.3060  141.7516  166.5263 C.ar    1  UNL1        0.0538
     23 C         141.5419  140.3559  167.0225 C.ar    1  UNL1        0.0108
     24 C         141.1942  139.9936  168.4359 C.ar    1  UNL1        0.0754
     25 C         140.6106  141.0270  169.3532 C.ar    1  UNL1        0.2901
     26 C         140.3747  142.4228  168.8571 C.ar    1  UNL1        0.0754
     27 C         140.7224  142.7852  167.4436 C.ar    1  UNL1        0.0108
     28 N         140.2629  140.6647  170.7667 N.pl3   1  UNL1        0.0809
     29 O         139.3707  139.4907  171.0422 O.2     1  UNL1        0.0415
     30 O         140.8073  141.4763  171.9046 O.co2   1  UNL1       -0.5760
@<TRIPOS>UNITY_ATOM_ATTR
28 1
charge 1
30 1
charge -1
@<TRIPOS>BOND
     1    12    13    1
     2    13     6    1
     3     6     7   ar
     4     7     8   ar
     5     8     9   ar
     6     9     5    1
     7     5     4    1
     8     4     2    1
     9     2     1    1
    10     1    16    1
    11    16    17    1
    12    17    18    1
    13    18    19   am
    14    19    20    2
    15    19    22    1
    16    22    23   ar
    17    23    24   ar
    18    24    25   ar
    19    25    28    1
    20    28    29    2
    21    28    30    1
    22    25    26   ar
    23    26    27   ar
    24     9    10   ar
    25    10    11   ar
    26    11    14    1
    27    14    15    1
    28    11     6   ar
    29    27    22   ar
    30     2     3    1
    31    18    21    1
@<TRIPOS>MOLECULE
*****
 30 31 0 0 0
SMALL
GASTEIGER

@<TRIPOS>ATOM
      1 C         144.8594  140.3627  163.3040 C.3     1  UNL1        0.0703
      2 N         144.2597  141.7342  163.4011 N.3     1  UNL1       -0.2971
      3 H         144.2279  142.1095  162.4532 H       1  UNL1        0.1233
      4 C         144.9109  142.7785  164.2586 C.3     1  UNL1        0.0733
      5 C         144.0678  143.7773  164.9945 C.3     1  UNL1        0.0435
      6 C         139.7128  144.2416  163.9610 C.ar    1  UNL1        0.1724
      7 C         140.1357  143.2405  164.9949 C.ar    1  UNL1        0.0397
      8 C         141.5874  143.0858  165.3394 C.ar    1  UNL1       -0.0009
      9 C         142.6161  143.9321  164.6500 C.ar    1  UNL1       -0.0176
     10 C         142.1932  144.9331  163.6161 C.ar    1  UNL1        0.0358
     11 C         140.7415  145.0879  163.2716 C.ar    1  UNL1        0.1721
     12 C         137.5872  143.3858  162.7365 C.3     1  UNL1        0.2526
     13 O         138.2611  144.3963  163.6166 O.3     1  UNL1       -0.4684
     14 O         140.3187  146.0891  162.2377 O.3     1  UNL1       -0.4684
     15 C         140.2443  145.6901  160.7937 C.3     1  UNL1        0.2526
     16 C         144.0163  139.2054  162.8571 C.3     1  UNL1        0.0383
     17 C         142.9380  138.6728  163.7534 C.3     1  UNL1        0.0911
     18 N         142.3678  139.5389  164.8373 N.am    1  UNL1       -0.3008
     19 C         142.7408  139.2916  166.2690 C.2     1  UNL1        0.2459
     20 O         143.6838  138.1782  166.6168 O.2     1  UNL1       -0.2701
     21 H         141.7489  140.2697  164.6090 H       1  UNL1        0.1497
     22 C         142.1706  140.1577  167.3529 C.ar    1  UNL1        0.0538
     23 C         140.7374  139.9972  167.7652 C.ar    1  UNL1        0.0108
     24 C         140.1673  140.8633  168.8491 C.ar    1  UNL1        0.0754
     25 C         141.0303  141.8900  169.5206 C.ar    1  UNL1        0.2901
     26 C         142.4636  142.0506  169.1083 C.ar    1  UNL1        0.0754
     27 C         143.0338  141.1845  168.0244 C.ar    1  UNL1        0.0108
     28 N         140.4602  142.7561  170.6045 N.pl3   1  UNL1        0.0809
     29 O         140.4464  142.2701  172.0235 O.2     1  UNL1        0.0415
     30 O         139.9038  144.1082  170.2693 O.co2   1  UNL1       -0.5760
@<TRIPOS>UNITY_ATOM_ATTR
28 1
charge 1
30 1
charge -1
@<TRIPOS>BOND
     1    12    13    1
     2    13     6    1
     3     6     7   ar
     4     7     8   ar
     5     8     9   ar
     6     9     5    1
     7     5     4    1
     8     4     2    1
     9     2     1    1
    10     1    16    1
    11    16    17    1
    12    17    18    1
    13    18    19   am
    14    19    20    2
    15    19    22    1
    16    22    23   ar
    17    23    24   ar
    18    24    25   ar
    19    25    28    1
    20    28    29    2
    21    28    30    1
    22    25    26   ar
    23    26    27   ar
    24     9    10   ar
    25    10    11   ar
    26    11    14    1
    27    14    15    1
    28    11     6   ar
    29    27    22   ar
    30     2     3    1
    31    18    21    1
@<TRIPOS>MOLECULE
*****
 30 31 0 0 0
SMALL
GASTEIGER

@<TRIPOS>ATOM
      1 C         137.8541  142.8476  162.6461 C.3     1  UNL1        0.0703
      2 N         137.5983  143.7178  163.8410 N.3     1  UNL1       -0.2971
      3 H         137.1219  144.5529  163.5005 H       1  UNL1        0.1233
      4 C         138.7452  144.1876  164.6859 C.3     1  UNL1        0.0733
      5 C         139.8332  145.0215  164.0768 C.3     1  UNL1        0.0435
      6 C         143.8256  143.1715  163.1345 C.ar    1  UNL1        0.1724
      7 C         143.7309  144.6377  163.4364 C.ar    1  UNL1        0.0397
      8 C         142.4001  145.2544  163.7505 C.ar    1  UNL1       -0.0009
      9 C         141.1640  144.4048  163.7627 C.ar    1  UNL1       -0.0176
     10 C         141.2587  142.9386  163.4608 C.ar    1  UNL1        0.0358
     11 C         142.5895  142.3219  163.1467 C.ar    1  UNL1        0.1721
     12 C         145.8039  141.6265  163.8046 C.3     1  UNL1        0.2526
     13 O         145.1564  142.5548  162.8203 O.3     1  UNL1       -0.4684
     14 O         142.6841  140.8556  162.8448 O.3     1  UNL1       -0.4684
     15 C         142.6716  140.3805  161.4221 C.3     1  UNL1        0.2526
     16 C         137.3078  141.4513  162.6045 C.3     1  UNL1        0.0383
     17 C         137.7116  140.4564  163.6519 C.3     1  UNL1        0.0911
     18 N         138.1532  140.9295  165.0051 N.am    1  UNL1       -0.3008
     19 C         139.4529  140.4497  165.5801 C.2     1  UNL1        0.2459
     20 O         140.3110  139.4968  164.8019 O.2     1  UNL1       -0.2701
     21 H         137.5900  141.5549  165.5159 H       1  UNL1        0.1497
     22 C         139.8945  140.9228  166.9333 C.ar    1  UNL1        0.0538
     23 C         139.5466  140.1271  168.1564 C.ar    1  UNL1        0.0108
     24 C         139.9882  140.6002  169.5096 C.ar    1  UNL1        0.0754
     25 C         140.7777  141.8689  169.6397 C.ar    1  UNL1        0.2901
     26 C         141.1256  142.6647  168.4167 C.ar    1  UNL1        0.0754
     27 C         140.6840  142.1916  167.0634 C.ar    1  UNL1        0.0108
     28 N         141.2193  142.3420  170.9930 N.pl3   1  UNL1        0.0809
     29 O         142.4940  143.1196  171.1365 O.2     1  UNL1        0.0415
     30 O         140.3862  142.0376  172.2026 O.co2   1  UNL1       -0.5760
@<TRIPOS>UNITY_ATOM_ATTR
28 1
charge 1
30 1
charge -1
@<TRIPOS>BOND
     1    12    13    1
     2    13     6    1
     3     6     7   ar
     4     7     8   ar
     5     8     9   ar
     6     9     5    1
     7     5     4    1
     8     4     2    1
     9     2     1    1
    10     1    16    1
    11    16    17    1
    12    17    18    1
    13    18    19   am
    14    19    20    2
    15    19    22    1
    16    22    23   ar
    17    23    24   ar
    18    24    25   ar
    19    25    28    1
    20    28    29    2
    21    28    30    1
    22    25    26   ar
    23    26    27   ar
    24     9    10   ar
    25    10    11   ar
    26    11    14    1
    27    14    15    1
    28    11     6   ar
    29    27    22   ar
    30     2     3    1
    31    18    21    1
@<TRIPOS>MOLECULE
*****
 30 31 0 0 0
SMALL
GASTEIGER

@<TRIPOS>ATOM
      1 C         145.3943  141.7765  162.8468 C.3     1  UNL1        0.0703
      2 N         145.3852  141.0602  164.1648 N.3     1  UNL1       -0.2971
      3 H         146.3256  141.1425  164.5512 H       1  UNL1        0.1233
      4 C         145.0175  139.6073  164.2262 C.3     1  UNL1        0.0733
      5 C         143.8702  139.1596  165.0825 C.3     1  UNL1        0.0435
      6 C         139.9277  138.1017  163.1883 C.ar    1  UNL1        0.1724
      7 C         141.0650  138.5804  162.3355 C.ar    1  UNL1        0.0397
      8 C         142.3792  138.9331  162.9669 C.ar    1  UNL1       -0.0009
      9 C         142.5560  138.8070  164.4511 C.ar    1  UNL1       -0.0176
     10 C         141.4187  138.3282  165.3038 C.ar    1  UNL1        0.0358
     11 C         140.1045  137.9756  164.6724 C.ar    1  UNL1        0.1721
     12 C         137.9001  138.7522  161.6998 C.3     1  UNL1        0.2526
     13 O         138.6135  137.7490  162.5569 O.3     1  UNL1       -0.4684
     14 O         138.9672  137.4968  165.5253 O.3     1  UNL1       -0.4684
     15 C         138.1116  138.4865  166.2591 C.3     1  UNL1        0.2526
     16 C         144.2410  142.6555  162.4630 C.3     1  UNL1        0.0383
     17 C         143.6850  143.6374  163.4511 C.3     1  UNL1        0.0911
     18 N         143.3565  143.1936  164.8458 N.am    1  UNL1       -0.3008
     19 C         142.0744  142.4641  165.1183 C.2     1  UNL1        0.2459
     20 O         141.1210  142.1785  163.9961 O.2     1  UNL1       -0.2701
     21 H         143.9823  143.3811  165.5823 H       1  UNL1        0.1497
     22 C         141.7459  142.0203  166.5129 C.ar    1  UNL1        0.0538
     23 C         142.7963  142.0692  167.5826 C.ar    1  UNL1        0.0108
     24 C         142.4678  141.6254  168.9773 C.ar    1  UNL1        0.0754
     25 C         141.0888  141.1326  169.3023 C.ar    1  UNL1        0.2901
     26 C         140.0383  141.0836  168.2326 C.ar    1  UNL1        0.0754
     27 C         140.3669  141.5275  166.8379 C.ar    1  UNL1        0.0108
     28 N         140.7603  140.6888  170.6969 N.pl3   1  UNL1        0.0809
     29 O         139.6751  139.6790  170.9266 O.2     1  UNL1        0.0415
     30 O         141.5170  141.2547  171.8619 O.co2   1  UNL1       -0.5760
@<TRIPOS>UNITY_ATOM_ATTR
28 1
charge 1
30 1
charge -1
@<TRIPOS>BOND
     1    12    13    1
     2    13     6    1
     3     6     7   ar
     4     7     8   ar
     5     8     9   ar
     6     9     5    1
     7     5     4    1
     8     4     2    1
     9     2     1    1
    10     1    16    1
    11    16    17    1
    12    17    18    1
    13    18    19   am
    14    19    20    2
    15    19    22    1
    16    22    23   ar
    17    23    24   ar
    18    24    25   ar
    19    25    28    1
    20    28    29    2
    21    28    30    1
    22    25    26   ar
    23    26    27   ar
    24     9    10   ar
    25    10    11   ar
    26    11    14    1
    27    14    15    1
    28    11     6   ar
    29    27    22   ar
    30     2     3    1
    31    18    21    1
@<TRIPOS>MOLECULE
*****
 30 31 0 0 0
SMALL
GASTEIGER

@<TRIPOS>ATOM
      1 C         140.3870  145.0207  162.7176 C.3     1  UNL1        0.0703
      2 N         140.1151  145.3516  164.1552 N.3     1  UNL1       -0.2971
      3 H         140.8958  144.9792  164.6958 H       1  UNL1        0.1233
      4 C         138.8596  144.8610  164.8132 C.3     1  UNL1        0.0733
      5 C         137.7855  144.2134  163.9906 C.3     1  UNL1        0.0435
      6 C         138.0799  139.8477  162.9401 C.ar    1  UNL1        0.1724
      7 C         138.1672  140.2818  164.3732 C.ar    1  UNL1        0.0397
      8 C         138.0691  141.7370  164.7234 C.ar    1  UNL1       -0.0009
      9 C         137.8836  142.7582  163.6404 C.ar    1  UNL1       -0.0176
     10 C         137.7963  142.3241  162.2073 C.ar    1  UNL1        0.0358
     11 C         137.8945  140.8688  161.8571 C.ar    1  UNL1        0.1721
     12 C         139.3527  137.5858  163.0585 C.3     1  UNL1        0.2526
     13 O         138.1781  138.3924  162.5899 O.3     1  UNL1       -0.4684
     14 O         137.8071  140.4348  160.4239 O.3     1  UNL1       -0.4684
     15 C         138.4347  141.2701  159.3477 C.3     1  UNL1        0.2526
     16 C         141.6353  144.2787  162.3419 C.3     1  UNL1        0.0383
     17 C         141.7712  142.8225  162.6747 C.3     1  UNL1        0.0911
     18 N         141.3759  142.3235  164.0329 N.am    1  UNL1       -0.3008
     19 C         142.2274  142.6422  165.2261 C.2     1  UNL1        0.2459
     20 O         143.4741  143.4598  165.0609 O.2     1  UNL1       -0.2701
     21 H         140.5577  141.7868  164.1413 H       1  UNL1        0.1497
     22 C         141.8322  142.1432  166.5843 C.ar    1  UNL1        0.0538
     23 C         140.6825  142.7761  167.3106 C.ar    1  UNL1        0.0108
     24 C         140.2873  142.2772  168.6688 C.ar    1  UNL1        0.0754
     25 C         141.0418  141.1453  169.3008 C.ar    1  UNL1        0.2901
     26 C         142.1916  140.5123  168.5745 C.ar    1  UNL1        0.0754
     27 C         142.5868  141.0112  167.2163 C.ar    1  UNL1        0.0108
     28 N         140.6466  140.6463  170.6590 N.pl3   1  UNL1        0.0809
     29 O         141.3941  141.1086  171.8746 O.2     1  UNL1        0.0415
     30 O         139.5039  139.6851  170.8017 O.co2   1  UNL1       -0.5760
@<TRIPOS>UNITY_ATOM_ATTR
28 1
charge 1
30 1
charge -1
@<TRIPOS>BOND
     1    12    13    1
     2    13     6    1
     3     6     7   ar
     4     7     8   ar
     5     8     9   ar
     6     9     5    1
     7     5     4    1
     8     4     2    1
     9     2     1    1
    10     1    16    1
    11    16    17    1
    12    17    18    1
    13    18    19   am
    14    19    20    2
    15    19    22    1
    16    22    23   ar
    17    23    24   ar
    18    24    25   ar
    19    25    28    1
    20    28    29    2
    21    28    30    1
    22    25    26   ar
    23    26    27   ar
    24     9    10   ar
    25    10    11   ar
    26    11    14    1
    27    14    15    1
    28    11     6   ar
    29    27    22   ar
    30     2     3    1
    31    18    21    1
@<TRIPOS>MOLECULE
*****
 30 31 0 0 0
SMALL
GASTEIGER

@<TRIPOS>ATOM
      1 C         143.8751  138.4921  162.1787 C.3     1  UNL1        0.0703
      2 N         144.7349  139.2039  163.1808 N.3     1  UNL1       -0.2971
      3 H         144.3685  138.9685  164.1032 H       1  UNL1        0.1233
      4 C         144.8616  140.6978  163.1337 C.3     1  UNL1        0.0733
      5 C         144.2938  141.5340  164.2420 C.3     1  UNL1        0.0435
      6 C         141.0059  144.4825  163.3782 C.ar    1  UNL1        0.1724
      7 C         142.3277  144.9642  163.8983 C.ar    1  UNL1        0.0397
      8 C         143.4237  143.9814  164.1863 C.ar    1  UNL1       -0.0009
      9 C         143.1978  142.5168  163.9540 C.ar    1  UNL1       -0.0176
     10 C         141.8760  142.0351  163.4339 C.ar    1  UNL1        0.0358
     11 C         140.7800  143.0179  163.1460 C.ar    1  UNL1        0.1721
     12 C         139.8568  146.1619  161.7629 C.3     1  UNL1        0.2526
     13 O         139.9099  145.4653  163.0903 O.3     1  UNL1       -0.4684
     14 O         139.4581  142.5361  162.6258 O.3     1  UNL1       -0.4684
     15 C         139.1117  141.0783  162.6935 C.3     1  UNL1        0.2526
     16 C         142.3877  138.4443  162.3662 C.3     1  UNL1        0.0383
     17 C         141.8106  137.9686  163.6664 C.3     1  UNL1        0.0911
     18 N         141.9715  138.7973  164.9063 N.am    1  UNL1       -0.3008
     19 C         140.7710  139.1499  165.7338 C.2     1  UNL1        0.2459
     20 O         139.4097  138.6737  165.3214 O.2     1  UNL1       -0.2701
     21 H         142.8649  139.1098  165.1770 H       1  UNL1        0.1497
     22 C         140.9319  139.9786  166.9737 C.ar    1  UNL1        0.0538
     23 C         142.1991  140.7480  167.2023 C.ar    1  UNL1        0.0108
     24 C         142.3600  141.5768  168.4422 C.ar    1  UNL1        0.0754
     25 C         141.2538  141.6361  169.4535 C.ar    1  UNL1        0.2901
     26 C         139.9865  140.8666  169.2249 C.ar    1  UNL1        0.0754
     27 C         139.8256  140.0379  167.9850 C.ar    1  UNL1        0.0108
     28 N         141.4147  142.4648  170.6933 N.pl3   1  UNL1        0.0809
     29 O         142.4728  143.5264  170.7538 O.2     1  UNL1        0.0415
     30 O         140.5176  142.2320  171.8727 O.co2   1  UNL1       -0.5760
@<TRIPOS>UNITY_ATOM_ATTR
28 1
charge 1
30 1
charge -1
@<TRIPOS>BOND
     1    12    13    1
     2    13     6    1
     3     6     7   ar
     4     7     8   ar
     5     8     9   ar
     6     9     5    1
     7     5     4    1
     8     4     2    1
     9     2     1    1
    10     1    16    1
    11    16    17    1
    12    17    18    1
    13    18    19   am
    14    19    20    2
    15    19    22    1
    16    22    23   ar
    17    23    24   ar
    18    24    25   ar
    19    25    28    1
    20    28    29    2
    21    28    30    1
    22    25    26   ar
    23    26    27   ar
    24     9    10   ar
    25    10    11   ar
    26    11    14    1
    27    14    15    1
    28    11     6   ar
    29    27    22   ar
    30     2     3    1
    31    18    21    1
@<TRIPOS>MOLECULE
*****
 30 31 0 0 0
SMALL
GASTEIGER

@<TRIPOS>ATOM
      1 C         142.3543  137.8875  161.7967 C.3     1  UNL1        0.0703
      2 N         141.4185  137.0450  162.6119 N.3     1  UNL1       -0.2971
      3 H         141.3141  136.1587  162.1180 H       1  UNL1        0.1233
      4 C         140.0345  137.5385  162.9132 C.3     1  UNL1        0.0733
      5 C         139.7725  138.3172  164.1681 C.3     1  UNL1        0.0435
      6 C         139.2956  142.7881  163.9837 C.ar    1  UNL1        0.1724
      7 C         138.4837  141.9868  164.9576 C.ar    1  UNL1        0.0397
      8 C         138.6427  140.4965  165.0191 C.ar    1  UNL1       -0.0009
      9 C         139.6135  139.8075  164.1066 C.ar    1  UNL1       -0.0176
     10 C         140.4254  140.6088  163.1327 C.ar    1  UNL1        0.0358
     11 C         140.2665  142.0991  163.0712 C.ar    1  UNL1        0.1721
     12 C         138.4742  144.9137  162.7358 C.3     1  UNL1        0.2526
     13 O         139.1366  144.2784  163.9222 O.3     1  UNL1       -0.4684
     14 O         141.0784  142.9004  162.0971 O.3     1  UNL1       -0.4684
     15 C         142.5229  143.1872  162.3821 C.3     1  UNL1        0.2526
     16 C         143.7433  138.1603  162.2930 C.3     1  UNL1        0.0383
     17 C         143.9821  139.2560  163.2892 C.3     1  UNL1        0.0911
     18 N         143.2315  139.2656  164.5879 N.am    1  UNL1       -0.3008
     19 C         143.2990  140.4665  165.4842 C.2     1  UNL1        0.2459
     20 O         144.1170  141.6577  165.0819 O.2     1  UNL1       -0.2701
     21 H         142.6946  138.4838  164.8519 H       1  UNL1        0.1497
     22 C         142.5484  140.4761  166.7829 C.ar    1  UNL1        0.0538
     23 C         142.8115  139.4143  167.8091 C.ar    1  UNL1        0.0108
     24 C         142.0610  139.4239  169.1078 C.ar    1  UNL1        0.0754
     25 C         141.0472  140.4954  169.3802 C.ar    1  UNL1        0.2901
     26 C         140.7840  141.5573  168.3540 C.ar    1  UNL1        0.0754
     27 C         141.5346  141.5477  167.0553 C.ar    1  UNL1        0.0108
     28 N         140.2966  140.5050  170.6789 N.pl3   1  UNL1        0.0809
     29 O         139.1258  139.5880  170.8753 O.2     1  UNL1        0.0415
     30 O         140.7168  141.4315  171.7812 O.co2   1  UNL1       -0.5760
@<TRIPOS>UNITY_ATOM_ATTR
28 1
charge 1
30 1
charge -1
@<TRIPOS>BOND
     1    12    13    1
     2    13     6    1
     3     6     7   ar
     4     7     8   ar
     5     8     9   ar
     6     9     5    1
     7     5     4    1
     8     4     2    1
     9     2     1    1
    10     1    16    1
    11    16    17    1
    12    17    18    1
    13    18    19   am
    14    19    20    2
    15    19    22    1
    16    22    23   ar
    17    23    24   ar
    18    24    25   ar
    19    25    28    1
    20    28    29    2
    21    28    30    1
    22    25    26   ar
    23    26    27   ar
    24     9    10   ar
    25    10    11   ar
    26    11    14    1
    27    14    15    1
    28    11     6   ar
    29    27    22   ar
    30     2     3    1
    31    18    21    1
