@<TRIPOS>MOLECULE
*****
 44 50 0 0 0
SMALL
GASTEIGER

@<TRIPOS>ATOM
      1 C         141.0333  141.7085  159.7901 C.3     1  UNL1        0.1707
      2 N         141.3115  140.6244  158.7915 N.3     1  UNL1       -0.2797
      3 C         142.5274  139.7592  158.9429 C.3     1  UNL1        0.1167
      4 C         143.4652  139.9781  160.0930 C.3     1  UNL1        0.0511
      5 C         143.1870  141.0622  161.0917 C.2     1  UNL1       -0.0037
      6 C         141.9711  141.9274  160.9402 C.2     1  UNL1        0.0800
      7 N         141.9575  142.9102  162.0733 N.2     1  UNL1       -0.2519
      8 C         143.1651  142.6525  162.9250 C.2     1  UNL1        0.0627
      9 C         143.6709  143.3102  164.1746 C.3     1  UNL1        0.0717
     10 C         144.9365  142.8258  164.8175 C.2     1  UNL1       -0.0198
     11 C         145.6964  141.6837  164.2108 C.2     1  UNL1       -0.0042
     12 C         145.1906  141.0259  162.9612 C.2     1  UNL1        0.0006
     13 C         143.9250  141.5103  162.3183 C.2     1  UNL1        0.0111
     14 H         141.3828  141.0754  157.8794 H       1  UNL1        0.1246
     15 C         140.3466  142.8548  160.4716 C.ar    1  UNL1        0.2493
     16 N         139.3078  142.7463  161.5481 N.ar    1  UNL1       -0.1282
     17 N         138.8974  144.1355  161.9380 N.ar    1  UNL1       -0.1772
     18 C         139.6827  145.1024  161.1024 C.ar    1  UNL1        0.4392
     19 O         139.5888  146.5983  161.1626 O.2     1  UNL1       -0.2210
     20 O         140.5784  144.3110  160.1961 O.2     1  UNL1       -0.3896
     21 C         137.8804  144.4944  162.9804 C.3     1  UNL1        0.1752
     22 C         138.0507  144.0140  164.3912 C.2     1  UNL1        0.0752
     23 O         138.4910  144.9691  165.4607 O.co2   1  UNL1       -0.5471
     24 O         137.7806  142.5785  164.7323 O.co2   1  UNL1       -0.5471
     25 C         142.8057  138.6750  157.9442 C.ar    1  UNL1        0.1319
     26 N         142.3627  137.2458  158.0483 N.ar    1  UNL1       -0.2282
     27 C         142.8589  136.5172  156.8346 C.ar    1  UNL1        0.1171
     28 C         143.6086  137.4963  155.9805 C.ar    1  UNL1        0.0942
     29 N         143.5757  138.8299  156.6663 N.ar    1  UNL1       -0.3385
     30 H         143.9872  139.6609  156.3357 H       1  UNL1        0.1672
     31 C         142.6433  135.0646  156.5287 C.ar    1  UNL1        0.1006
     32 C         141.6731  134.6594  155.4589 C.ar    1  UNL1        0.0230
     33 C         141.4575  133.2069  155.1530 C.ar    1  UNL1        0.0328
     34 C         142.2121  132.1595  155.9169 C.ar    1  UNL1        0.1592
     35 F         141.9965  130.7069  155.6110 F       1  UNL1       -0.2025
     36 C         143.1823  132.5647  156.9867 C.ar    1  UNL1        0.1284
     37 N         143.3980  134.0172  157.2926 N.ar    1  UNL1       -0.2399
     38 N         138.4092  142.7136  157.1126 N.ar    1  UNL1       -0.2497
     39 C         139.7518  142.8832  157.7596 C.ar    1  UNL1        0.0944
     40 C         139.8571  141.8877  158.8767 C.ar    1  UNL1        0.0439
     41 C         138.5795  141.1028  158.9200 C.ar    1  UNL1        0.1194
     42 N         137.6847  141.6132  157.8297 N.ar    1  UNL1       -0.1679
     43 C         136.5327  143.1912  155.3803 C.3     1  UNL1        0.0284
     44 C         137.8834  143.5053  155.9521 C.3     1  UNL1        0.1276
@<TRIPOS>UNITY_ATOM_ATTR
23 1
charge -1
@<TRIPOS>BOND
     1    43    44    1
     2    44    38    1
     3    38    39   ar
     4    39    40   ar
     5     1    40    1
     6     1    15    1
     7    15    16   ar
     8    16    17   ar
     9    17    21    1
    10    21    22    1
    11    22    23   ar
    12    22    24   ar
    13    17    18   ar
    14    18    19    2
    15    18    20   ar
    16     1     2    1
    17     2     3    1
    18     3    25    1
    19    25    26   ar
    20    26    27   ar
    21    27    31    1
    22    31    32   ar
    23    32    33   ar
    24    33    34   ar
    25    34    35    1
    26    34    36   ar
    27    36    37   ar
    28    27    28   ar
    29    28    29   ar
    30     3     4    1
    31     4     5    1
    32     5     6    2
    33     6     7    1
    34     7     8    2
    35     8     9    1
    36     9    10    1
    37    10    11    2
    38    11    12    1
    39    12    13    2
    40    40    41   ar
    41    41    42   ar
    42    42    38   ar
    43     6     1    1
    44    13     8    1
    45    20    15   ar
    46    29    25   ar
    47    13     5    1
    48    37    31   ar
    49     2    14    1
    50    29    30    1
@<TRIPOS>MOLECULE
*****
 44 50 0 0 0
SMALL
GASTEIGER

@<TRIPOS>ATOM
      1 C         142.6205  141.2643  159.5880 C.3     1  UNL1        0.1707
      2 N         142.9908  139.9526  158.9617 N.3     1  UNL1       -0.2797
      3 C         142.9418  139.7929  157.4710 C.3     1  UNL1        0.1167
      4 C         142.5224  140.9450  156.6067 C.3     1  UNL1        0.0511
      5 C         142.1521  142.2566  157.2331 C.2     1  UNL1       -0.0037
      6 C         142.2011  142.4163  158.7237 C.2     1  UNL1        0.0800
      7 N         141.7827  143.8184  159.0537 N.2     1  UNL1       -0.2519
      8 C         141.4750  144.5253  157.7670 C.2     1  UNL1        0.0627
      9 C         141.0165  145.9232  157.4746 C.3     1  UNL1        0.0717
     10 C         140.7862  146.3559  156.0569 C.2     1  UNL1       -0.0198
     11 C         141.0146  145.3906  154.9317 C.2     1  UNL1       -0.0042
     12 C         141.4731  143.9927  155.2241 C.2     1  UNL1        0.0006
     13 C         141.7033  143.5601  156.6417 C.2     1  UNL1        0.0111
     14 H         142.3625  139.2512  159.3538 H       1  UNL1        0.1246
     15 C         142.3650  142.3010  160.6417 C.ar    1  UNL1        0.2493
     16 N         141.0382  142.6134  161.2677 N.ar    1  UNL1       -0.1282
     17 N         141.2447  143.7128  162.2671 N.ar    1  UNL1       -0.1772
     18 C         142.6991  144.0797  162.2587 C.ar    1  UNL1        0.4392
     19 O         143.3473  145.1342  163.1061 O.2     1  UNL1       -0.2210
     20 O         143.3914  143.2072  161.2540 O.2     1  UNL1       -0.3896
     21 C         140.1831  144.3357  163.1244 C.3     1  UNL1        0.1752
     22 C         139.0272  145.0485  162.4874 C.2     1  UNL1        0.0752
     23 O         137.6252  144.5787  162.7397 O.co2   1  UNL1       -0.5471
     24 O         139.2733  146.2311  161.5981 O.co2   1  UNL1       -0.5471
     25 C         143.3122  138.4812  156.8446 C.ar    1  UNL1        0.1319
     26 N         142.7707  137.1364  157.2295 N.ar    1  UNL1       -0.2282
     27 C         143.4128  136.1081  156.3461 C.ar    1  UNL1        0.1171
     28 C         144.3512  136.8174  155.4154 C.ar    1  UNL1        0.0942
     29 N         144.2889  138.2841  155.7235 N.ar    1  UNL1       -0.3385
     30 H         144.7996  138.9930  155.2695 H       1  UNL1        0.1672
     31 C         143.1608  134.6299  156.3865 C.ar    1  UNL1        0.1006
     32 C         142.0197  134.0422  155.6103 C.ar    1  UNL1        0.0230
     33 C         141.7677  132.5641  155.6506 C.ar    1  UNL1        0.0328
     34 C         142.6568  131.6737  156.4671 C.ar    1  UNL1        0.1592
     35 F         142.4048  130.1955  156.5075 F       1  UNL1       -0.2025
     36 C         143.7979  132.2614  157.2433 C.ar    1  UNL1        0.1284
     37 N         144.0500  133.7395  157.2029 N.ar    1  UNL1       -0.2399
     38 N         142.7576  138.9913  162.7313 N.ar    1  UNL1       -0.2497
     39 C         142.0090  139.5823  161.5735 C.ar    1  UNL1        0.0944
     40 C         142.9511  140.4723  160.8183 C.ar    1  UNL1        0.0439
     41 C         144.2819  140.4313  161.5092 C.ar    1  UNL1        0.1194
     42 N         144.1623  139.5159  162.6916 N.ar    1  UNL1       -0.1679
     43 C         140.9889  137.2186  163.4237 C.3     1  UNL1        0.0284
     44 C         142.1994  138.0422  163.7500 C.3     1  UNL1        0.1276
@<TRIPOS>UNITY_ATOM_ATTR
23 1
charge -1
@<TRIPOS>BOND
     1    43    44    1
     2    44    38    1
     3    38    39   ar
     4    39    40   ar
     5     1    40    1
     6     1    15    1
     7    15    16   ar
     8    16    17   ar
     9    17    21    1
    10    21    22    1
    11    22    23   ar
    12    22    24   ar
    13    17    18   ar
    14    18    19    2
    15    18    20   ar
    16     1     2    1
    17     2     3    1
    18     3    25    1
    19    25    26   ar
    20    26    27   ar
    21    27    31    1
    22    31    32   ar
    23    32    33   ar
    24    33    34   ar
    25    34    35    1
    26    34    36   ar
    27    36    37   ar
    28    27    28   ar
    29    28    29   ar
    30     3     4    1
    31     4     5    1
    32     5     6    2
    33     6     7    1
    34     7     8    2
    35     8     9    1
    36     9    10    1
    37    10    11    2
    38    11    12    1
    39    12    13    2
    40    40    41   ar
    41    41    42   ar
    42    42    38   ar
    43     6     1    1
    44    13     8    1
    45    20    15   ar
    46    29    25   ar
    47    13     5    1
    48    37    31   ar
    49     2    14    1
    50    29    30    1
@<TRIPOS>MOLECULE
*****
 44 50 0 0 0
SMALL
GASTEIGER

@<TRIPOS>ATOM
      1 C         141.1083  140.2580  159.6592 C.3     1  UNL1        0.1707
      2 N         141.6632  139.0096  159.0400 N.3     1  UNL1       -0.2797
      3 C         142.3417  139.0729  157.7037 C.3     1  UNL1        0.1167
      4 C         142.4652  140.3846  156.9866 C.3     1  UNL1        0.0511
      5 C         141.9103  141.6330  157.6058 C.2     1  UNL1       -0.0037
      6 C         141.2318  141.5697  158.9421 C.2     1  UNL1        0.0800
      7 N         140.7853  142.9559  159.3013 N.2     1  UNL1       -0.2519
      8 C         141.1877  143.8759  158.1870 C.2     1  UNL1        0.0627
      9 C         141.0109  145.3525  157.9911 C.3     1  UNL1        0.0717
     10 C         141.5294  146.0115  156.7474 C.2     1  UNL1       -0.0198
     11 C         142.2247  145.1938  155.6995 C.2     1  UNL1       -0.0042
     12 C         142.4015  143.7173  155.8954 C.2     1  UNL1        0.0006
     13 C         141.8830  143.0583  157.1391 C.2     1  UNL1        0.0111
     14 H         140.8850  138.3572  158.9444 H       1  UNL1        0.1246
     15 C         140.4284  141.1597  160.6465 C.ar    1  UNL1        0.2493
     16 N         141.1104  142.0516  161.6411 N.ar    1  UNL1       -0.1282
     17 N         140.0506  142.7709  162.4218 N.ar    1  UNL1       -0.1772
     18 C         138.7137  142.3235  161.9097 C.ar    1  UNL1        0.4392
     19 O         137.3777  142.7900  162.4074 O.2     1  UNL1       -0.2210
     20 O         138.9472  141.3277  160.8125 O.2     1  UNL1       -0.3896
     21 C         140.2865  143.7633  163.5215 C.3     1  UNL1        0.1752
     22 C         140.9283  145.0840  163.2150 C.2     1  UNL1        0.0752
     23 O         142.2045  145.4746  163.8996 O.co2   1  UNL1       -0.5471
     24 O         140.2938  146.0141  162.2239 O.co2   1  UNL1       -0.5471
     25 C         142.8967  137.8244  157.0844 C.ar    1  UNL1        0.1319
     26 N         142.5762  136.4182  157.4965 N.ar    1  UNL1       -0.2282
     27 C         143.3510  135.4877  156.6112 C.ar    1  UNL1        0.1171
     28 C         144.1503  136.3188  155.6519 C.ar    1  UNL1        0.0942
     29 N         143.8695  137.7630  155.9443 N.ar    1  UNL1       -0.3385
     30 H         144.2559  138.5350  155.4711 H       1  UNL1        0.1672
     31 C         143.3301  133.9891  156.6741 C.ar    1  UNL1        0.1006
     32 C         142.2825  133.2215  155.9236 C.ar    1  UNL1        0.0230
     33 C         142.2615  131.7230  155.9865 C.ar    1  UNL1        0.0328
     34 C         143.2882  130.9921  156.7999 C.ar    1  UNL1        0.1592
     35 F         143.2673  129.4935  156.8628 F       1  UNL1       -0.2025
     36 C         144.3358  131.7597  157.5504 C.ar    1  UNL1        0.1284
     37 N         144.3567  133.2582  157.4875 N.ar    1  UNL1       -0.2399
     38 N         140.8348  137.8754  162.7110 N.ar    1  UNL1       -0.2497
     39 C         141.5722  138.9194  161.9259 C.ar    1  UNL1        0.0944
     40 C         140.7487  139.2595  160.7191 C.ar    1  UNL1        0.0439
     41 C         139.5024  138.4256  160.7585 C.ar    1  UNL1        0.1194
     42 N         139.5556  137.5702  161.9895 N.ar    1  UNL1       -0.1679
     43 C         141.9907  138.0796  165.0288 C.3     1  UNL1        0.0284
     44 C         141.2957  137.2469  163.9927 C.3     1  UNL1        0.1276
@<TRIPOS>UNITY_ATOM_ATTR
23 1
charge -1
@<TRIPOS>BOND
     1    43    44    1
     2    44    38    1
     3    38    39   ar
     4    39    40   ar
     5     1    40    1
     6     1    15    1
     7    15    16   ar
     8    16    17   ar
     9    17    21    1
    10    21    22    1
    11    22    23   ar
    12    22    24   ar
    13    17    18   ar
    14    18    19    2
    15    18    20   ar
    16     1     2    1
    17     2     3    1
    18     3    25    1
    19    25    26   ar
    20    26    27   ar
    21    27    31    1
    22    31    32   ar
    23    32    33   ar
    24    33    34   ar
    25    34    35    1
    26    34    36   ar
    27    36    37   ar
    28    27    28   ar
    29    28    29   ar
    30     3     4    1
    31     4     5    1
    32     5     6    2
    33     6     7    1
    34     7     8    2
    35     8     9    1
    36     9    10    1
    37    10    11    2
    38    11    12    1
    39    12    13    2
    40    40    41   ar
    41    41    42   ar
    42    42    38   ar
    43     6     1    1
    44    13     8    1
    45    20    15   ar
    46    29    25   ar
    47    13     5    1
    48    37    31   ar
    49     2    14    1
    50    29    30    1
@<TRIPOS>MOLECULE
*****
 44 50 0 0 0
SMALL
GASTEIGER

@<TRIPOS>ATOM
      1 C         142.2946  140.8421  160.5192 C.3     1  UNL1        0.1707
      2 N         142.5637  139.8658  159.4128 N.3     1  UNL1       -0.2797
      3 C         142.0443  138.4619  159.5086 C.3     1  UNL1        0.1167
      4 C         141.2556  138.0343  160.7108 C.3     1  UNL1        0.0511
      5 C         140.9865  139.0107  161.8172 C.2     1  UNL1       -0.0037
      6 C         141.5059  140.4146  161.7215 C.2     1  UNL1        0.0800
      7 N         141.0856  141.1498  162.9595 N.2     1  UNL1       -0.2519
      8 C         140.3064  140.2002  163.8205 C.2     1  UNL1        0.0627
      9 C         139.6447  140.3686  165.1561 C.3     1  UNL1        0.0717
     10 C         138.9218  139.2150  165.7856 C.2     1  UNL1       -0.0198
     11 C         138.8605  137.8930  165.0796 C.2     1  UNL1       -0.0042
     12 C         139.5222  137.7246  163.7441 C.2     1  UNL1        0.0006
     13 C         140.2451  138.8782  163.1145 C.2     1  UNL1        0.0111
     14 H         143.5772  139.7990  159.3191 H       1  UNL1        0.1246
     15 C         142.2999  142.1213  161.3027 C.ar    1  UNL1        0.2493
     16 N         141.1705  143.1040  161.3940 N.ar    1  UNL1       -0.1282
     17 N         141.6083  144.2323  162.2802 N.ar    1  UNL1       -0.1772
     18 C         143.0083  143.9468  162.7366 C.ar    1  UNL1        0.4392
     19 O         143.8356  144.8139  163.6388 O.2     1  UNL1       -0.2210
     20 O         143.4358  142.6421  162.1325 O.2     1  UNL1       -0.3896
     21 C         140.7897  145.4349  162.6458 C.3     1  UNL1        0.1752
     22 C         139.4173  145.6122  162.0668 C.2     1  UNL1        0.0752
     23 O         138.2885  144.7412  162.5329 O.co2   1  UNL1       -0.5471
     24 O         139.1737  146.6603  161.0219 O.co2   1  UNL1       -0.5471
     25 C         142.3134  137.4854  158.4021 C.ar    1  UNL1        0.1319
     26 N         142.9451  136.1334  158.5537 N.ar    1  UNL1       -0.2282
     27 C         143.0203  135.5020  157.1951 C.ar    1  UNL1        0.1171
     28 C         142.4350  136.4637  156.2040 C.ar    1  UNL1        0.0942
     29 N         141.9981  137.6896  156.9499 N.ar    1  UNL1       -0.3385
     30 H         141.5782  138.4880  156.5556 H       1  UNL1        0.1672
     31 C         143.5821  134.1467  156.8826 C.ar    1  UNL1        0.1006
     32 C         143.2673  133.4883  155.5721 C.ar    1  UNL1        0.0230
     33 C         143.8290  132.1330  155.2596 C.ar    1  UNL1        0.0328
     34 C         144.7056  131.4362  156.2576 C.ar    1  UNL1        0.1592
     35 F         145.2674  130.0809  155.9451 F       1  UNL1       -0.2025
     36 C         145.0204  132.0946  157.5681 C.ar    1  UNL1        0.1284
     37 N         144.4586  133.4498  157.8806 N.ar    1  UNL1       -0.2399
     38 N         144.9160  142.6497  158.2998 N.ar    1  UNL1       -0.2497
     39 C         144.5441  141.5697  159.2721 C.ar    1  UNL1        0.0944
     40 C         143.0851  141.7139  159.5892 C.ar    1  UNL1        0.0439
     41 C         142.5553  142.8830  158.8128 C.ar    1  UNL1        0.1194
     42 N         143.6869  143.4614  158.0159 N.ar    1  UNL1       -0.1679
     43 C         146.5856  142.4049  156.3243 C.3     1  UNL1        0.0284
     44 C         146.2780  142.8780  157.7141 C.3     1  UNL1        0.1276
@<TRIPOS>UNITY_ATOM_ATTR
23 1
charge -1
@<TRIPOS>BOND
     1    43    44    1
     2    44    38    1
     3    38    39   ar
     4    39    40   ar
     5     1    40    1
     6     1    15    1
     7    15    16   ar
     8    16    17   ar
     9    17    21    1
    10    21    22    1
    11    22    23   ar
    12    22    24   ar
    13    17    18   ar
    14    18    19    2
    15    18    20   ar
    16     1     2    1
    17     2     3    1
    18     3    25    1
    19    25    26   ar
    20    26    27   ar
    21    27    31    1
    22    31    32   ar
    23    32    33   ar
    24    33    34   ar
    25    34    35    1
    26    34    36   ar
    27    36    37   ar
    28    27    28   ar
    29    28    29   ar
    30     3     4    1
    31     4     5    1
    32     5     6    2
    33     6     7    1
    34     7     8    2
    35     8     9    1
    36     9    10    1
    37    10    11    2
    38    11    12    1
    39    12    13    2
    40    40    41   ar
    41    41    42   ar
    42    42    38   ar
    43     6     1    1
    44    13     8    1
    45    20    15   ar
    46    29    25   ar
    47    13     5    1
    48    37    31   ar
    49     2    14    1
    50    29    30    1
@<TRIPOS>MOLECULE
*****
 44 50 0 0 0
SMALL
GASTEIGER

@<TRIPOS>ATOM
      1 C         140.0397  141.4278  159.7387 C.3     1  UNL1        0.1707
      2 N         140.0490  140.5729  158.5062 N.3     1  UNL1       -0.2797
      3 C         139.7945  139.0986  158.6143 C.3     1  UNL1        0.1167
      4 C         139.5308  138.4792  159.9547 C.3     1  UNL1        0.0511
      5 C         139.5215  139.3342  161.1872 C.2     1  UNL1       -0.0037
      6 C         139.7760  140.8085  161.0792 C.2     1  UNL1        0.0800
      7 N         139.7047  141.3934  162.4586 N.2     1  UNL1       -0.2519
      8 C         139.4062  140.2806  163.4191 C.2     1  UNL1        0.0627
      9 C         139.2229  140.2618  164.9077 C.3     1  UNL1        0.0717
     10 C         138.9264  138.9703  165.6106 C.2     1  UNL1       -0.0198
     11 C         138.8132  137.6976  164.8248 C.2     1  UNL1       -0.0042
     12 C         138.9965  137.7164  163.3362 C.2     1  UNL1        0.0006
     13 C         139.2930  139.0079  162.6334 C.2     1  UNL1        0.0111
     14 H         140.9686  140.6825  158.0788 H       1  UNL1        0.1246
     15 C         140.1333  142.6447  160.6109 C.ar    1  UNL1        0.2493
     16 N         141.3034  143.0274  161.4677 N.ar    1  UNL1       -0.1282
     17 N         140.9664  144.3117  162.1657 N.ar    1  UNL1       -0.1772
     18 C         139.5880  144.7226  161.7402 C.ar    1  UNL1        0.4392
     19 O         138.8534  145.9485  162.1958 O.2     1  UNL1       -0.2210
     20 O         139.0731  143.6923  160.7793 O.2     1  UNL1       -0.3896
     21 C         141.8524  145.0545  163.1213 C.3     1  UNL1        0.1752
     22 C         143.2253  144.5348  163.4297 C.2     1  UNL1        0.0752
     23 O         143.4822  143.8141  164.7199 O.co2   1  UNL1       -0.5471
     24 O         144.3413  144.7358  162.4478 O.co2   1  UNL1       -0.5471
     25 C         139.8037  138.2436  157.3818 C.ar    1  UNL1        0.1319
     26 N         140.7644  137.1295  157.0889 N.ar    1  UNL1       -0.2282
     27 C         140.4084  136.5499  155.7520 C.ar    1  UNL1        0.1171
     28 C         139.2277  137.3059  155.2186 C.ar    1  UNL1        0.0942
     29 N         138.8540  138.3527  156.2259 N.ar    1  UNL1       -0.3385
     30 H         138.1152  138.9980  156.1429 H       1  UNL1        0.1672
     31 C         141.1099  135.4138  155.0684 C.ar    1  UNL1        0.1006
     32 C         140.9879  135.2418  153.5833 C.ar    1  UNL1        0.0230
     33 C         141.6894  134.1057  152.8997 C.ar    1  UNL1        0.0328
     34 C         142.5128  133.1417  153.7013 C.ar    1  UNL1        0.1592
     35 F         143.2143  132.0056  153.0177 F       1  UNL1       -0.2025
     36 C         142.6348  133.3137  155.1864 C.ar    1  UNL1        0.1284
     37 N         141.9333  134.4498  155.8699 N.ar    1  UNL1       -0.2399
     38 N         140.0585  144.1398  156.9619 N.ar    1  UNL1       -0.2497
     39 C         139.3235  143.1899  157.8606 C.ar    1  UNL1        0.0944
     40 C         140.3359  142.4698  158.7012 C.ar    1  UNL1        0.0439
     41 C         141.6966  142.9747  158.3220 C.ar    1  UNL1        0.1194
     42 N         141.5251  144.0068  157.2471 N.ar    1  UNL1       -0.1679
     43 C         139.6206  146.5442  156.0806 C.3     1  UNL1        0.0284
     44 C         139.4361  145.0609  155.9549 C.3     1  UNL1        0.1276
@<TRIPOS>UNITY_ATOM_ATTR
23 1
charge -1
@<TRIPOS>BOND
     1    43    44    1
     2    44    38    1
     3    38    39   ar
     4    39    40   ar
     5     1    40    1
     6     1    15    1
     7    15    16   ar
     8    16    17   ar
     9    17    21    1
    10    21    22    1
    11    22    23   ar
    12    22    24   ar
    13    17    18   ar
    14    18    19    2
    15    18    20   ar
    16     1     2    1
    17     2     3    1
    18     3    25    1
    19    25    26   ar
    20    26    27   ar
    21    27    31    1
    22    31    32   ar
    23    32    33   ar
    24    33    34   ar
    25    34    35    1
    26    34    36   ar
    27    36    37   ar
    28    27    28   ar
    29    28    29   ar
    30     3     4    1
    31     4     5    1
    32     5     6    2
    33     6     7    1
    34     7     8    2
    35     8     9    1
    36     9    10    1
    37    10    11    2
    38    11    12    1
    39    12    13    2
    40    40    41   ar
    41    41    42   ar
    42    42    38   ar
    43     6     1    1
    44    13     8    1
    45    20    15   ar
    46    29    25   ar
    47    13     5    1
    48    37    31   ar
    49     2    14    1
    50    29    30    1
@<TRIPOS>MOLECULE
*****
 44 50 0 0 0
SMALL
GASTEIGER

@<TRIPOS>ATOM
      1 C         141.4485  141.8614  160.1841 C.3     1  UNL1        0.1707
      2 N         142.2786  141.7173  158.9431 N.3     1  UNL1       -0.2797
      3 C         143.5916  140.9941  158.9988 C.3     1  UNL1        0.1167
      4 C         144.0744  140.4150  160.2955 C.3     1  UNL1        0.0511
      5 C         143.2444  140.5591  161.5366 C.2     1  UNL1       -0.0037
      6 C         141.9314  141.2823  161.4808 C.2     1  UNL1        0.0800
      7 N         141.3351  141.2669  162.8571 N.2     1  UNL1       -0.2519
      8 C         142.2794  140.5343  163.7634 C.2     1  UNL1        0.0627
      9 C         142.2173  140.2089  165.2263 C.3     1  UNL1        0.0717
     10 C         143.3352  139.4461  165.8731 C.2     1  UNL1       -0.0198
     11 C         144.5152  139.0086  165.0570 C.2     1  UNL1       -0.0042
     12 C         144.5774  139.3340  163.5940 C.2     1  UNL1        0.0006
     13 C         143.4595  140.0968  162.9472 C.2     1  UNL1        0.0111
     14 H         142.4761  142.6608  158.6097 H       1  UNL1        0.1246
     15 C         140.3139  142.2540  161.0833 C.ar    1  UNL1        0.2493
     16 N         140.2260  143.5133  161.8933 N.ar    1  UNL1       -0.1282
     17 N         138.9256  143.4937  162.6410 N.ar    1  UNL1       -0.1772
     18 C         138.2100  142.2222  162.2929 C.ar    1  UNL1        0.4392
     19 O         136.8714  141.7924  162.8158 O.2     1  UNL1       -0.2210
     20 O         139.0680  141.4560  161.3302 O.2     1  UNL1       -0.3896
     21 C         138.4284  144.5586  163.5730 C.3     1  UNL1        0.1752
     22 C         138.8626  144.5611  165.0088 C.2     1  UNL1        0.0752
     23 O         139.9823  143.6684  165.4553 O.co2   1  UNL1       -0.5471
     24 O         138.1771  145.4563  165.9980 O.co2   1  UNL1       -0.5471
     25 C         144.4217  140.8499  157.7577 C.ar    1  UNL1        0.1319
     26 N         145.4322  141.8371  157.2534 N.ar    1  UNL1       -0.2282
     27 C         146.0221  141.2906  155.9871 C.ar    1  UNL1        0.1171
     28 C         145.3762  139.9657  155.7089 C.ar    1  UNL1        0.0942
     29 N         144.3871  139.6934  156.8032 N.ar    1  UNL1       -0.3385
     30 H         143.8155  138.8956  156.8812 H       1  UNL1        0.1672
     31 C         147.0734  141.9528  155.1467 C.ar    1  UNL1        0.1006
     32 C         146.7000  143.0777  154.2273 C.ar    1  UNL1        0.0230
     33 C         147.7512  143.7399  153.3869 C.ar    1  UNL1        0.0328
     34 C         149.1758  143.2772  153.4658 C.ar    1  UNL1        0.1592
     35 F         150.2271  143.9395  152.6253 F       1  UNL1       -0.2025
     36 C         149.5493  142.1524  154.3851 C.ar    1  UNL1        0.1284
     37 N         148.4981  141.4902  155.2256 N.ar    1  UNL1       -0.2399
     38 N         138.8118  143.0561  157.5985 N.ar    1  UNL1       -0.2497
     39 C         139.3921  141.9913  158.4814 C.ar    1  UNL1        0.0944
     40 C         140.5716  142.5768  159.1997 C.ar    1  UNL1        0.0439
     41 C         140.7202  144.0035  158.7607 C.ar    1  UNL1        0.1194
     42 N         139.6325  144.2996  157.7711 N.ar    1  UNL1       -0.1679
     43 C         137.3944  143.8775  155.5820 C.3     1  UNL1        0.0284
     44 C         137.6198  142.9039  156.7006 C.3     1  UNL1        0.1276
@<TRIPOS>UNITY_ATOM_ATTR
23 1
charge -1
@<TRIPOS>BOND
     1    43    44    1
     2    44    38    1
     3    38    39   ar
     4    39    40   ar
     5     1    40    1
     6     1    15    1
     7    15    16   ar
     8    16    17   ar
     9    17    21    1
    10    21    22    1
    11    22    23   ar
    12    22    24   ar
    13    17    18   ar
    14    18    19    2
    15    18    20   ar
    16     1     2    1
    17     2     3    1
    18     3    25    1
    19    25    26   ar
    20    26    27   ar
    21    27    31    1
    22    31    32   ar
    23    32    33   ar
    24    33    34   ar
    25    34    35    1
    26    34    36   ar
    27    36    37   ar
    28    27    28   ar
    29    28    29   ar
    30     3     4    1
    31     4     5    1
    32     5     6    2
    33     6     7    1
    34     7     8    2
    35     8     9    1
    36     9    10    1
    37    10    11    2
    38    11    12    1
    39    12    13    2
    40    40    41   ar
    41    41    42   ar
    42    42    38   ar
    43     6     1    1
    44    13     8    1
    45    20    15   ar
    46    29    25   ar
    47    13     5    1
    48    37    31   ar
    49     2    14    1
    50    29    30    1
@<TRIPOS>MOLECULE
*****
 44 50 0 0 0
SMALL
GASTEIGER

@<TRIPOS>ATOM
      1 C         140.4965  142.0961  159.4108 C.3     1  UNL1        0.1707
      2 N         139.1936  141.8151  158.7227 N.3     1  UNL1       -0.2797
      3 C         139.1732  141.4926  157.2579 C.3     1  UNL1        0.1167
      4 C         140.4558  141.4511  156.4812 C.3     1  UNL1        0.0511
      5 C         141.7587  141.7321  157.1693 C.2     1  UNL1       -0.0037
      6 C         141.7791  142.0546  158.6340 C.2     1  UNL1        0.0800
      7 N         143.2050  142.2858  159.0379 N.2     1  UNL1       -0.2519
      8 C         144.0660  142.1061  157.8228 C.2     1  UNL1        0.0627
      9 C         145.5484  142.2099  157.6188 C.3     1  UNL1        0.0717
     10 C         146.1369  141.9715  156.2599 C.2     1  UNL1       -0.0198
     11 C         145.2430  141.6294  155.1049 C.2     1  UNL1       -0.0042
     12 C         143.7606  141.5256  155.3090 C.2     1  UNL1        0.0006
     13 C         143.1721  141.7640  156.6679 C.2     1  UNL1        0.0111
     14 H         138.6089  142.6412  158.8505 H       1  UNL1        0.1246
     15 C         141.4717  142.4320  160.4999 C.ar    1  UNL1        0.2493
     16 N         141.9378  141.5048  161.5828 N.ar    1  UNL1       -0.1282
     17 N         142.9062  142.2540  162.4495 N.ar    1  UNL1       -0.1772
     18 C         143.0384  143.6442  161.9022 C.ar    1  UNL1        0.4392
     19 O         143.9050  144.7333  162.4617 O.2     1  UNL1       -0.2210
     20 O         142.1518  143.7543  160.6973 O.2     1  UNL1       -0.3896
     21 C         143.6173  141.7085  163.6523 C.3     1  UNL1        0.1752
     22 C         144.9691  141.0759  163.5015 C.2     1  UNL1        0.0752
     23 O         145.2571  139.7571  164.1555 O.co2   1  UNL1       -0.5471
     24 O         146.0327  141.7621  162.6966 O.co2   1  UNL1       -0.5471
     25 C         137.8703  141.2116  156.5698 C.ar    1  UNL1        0.1319
     26 N         136.5848  140.8257  157.2396 N.ar    1  UNL1       -0.2282
     27 C         135.5441  140.6428  156.1749 C.ar    1  UNL1        0.1171
     28 C         136.1864  140.9157  154.8472 C.ar    1  UNL1        0.0942
     29 N         137.6241  141.2672  155.0912 N.ar    1  UNL1       -0.3385
     30 H         138.2893  141.4946  154.4020 H       1  UNL1        0.1672
     31 C         134.1125  140.2551  156.3988 C.ar    1  UNL1        0.1006
     32 C         133.0118  141.0478  155.7583 C.ar    1  UNL1        0.0230
     33 C         131.5802  140.6601  155.9821 C.ar    1  UNL1        0.0328
     34 C         131.2492  139.4797  156.8463 C.ar    1  UNL1        0.1592
     35 F         129.8175  139.0920  157.0702 F       1  UNL1       -0.2025
     36 C         132.3498  138.6870  157.4868 C.ar    1  UNL1        0.1284
     37 N         133.7815  139.0746  157.2630 N.ar    1  UNL1       -0.2399
     38 N         138.2540  143.2312  162.3685 N.ar    1  UNL1       -0.2497
     39 C         139.2469  143.5342  161.2857 C.ar    1  UNL1        0.0944
     40 C         139.5526  142.2543  160.5657 C.ar    1  UNL1        0.0439
     41 C         138.7486  141.1603  161.2036 C.ar    1  UNL1        0.1194
     42 N         137.9461  141.7641  162.3178 N.ar    1  UNL1       -0.1679
     43 C         138.3153  144.4334  164.6709 C.3     1  UNL1        0.0284
     44 C         137.6714  144.2216  163.3328 C.3     1  UNL1        0.1276
@<TRIPOS>UNITY_ATOM_ATTR
23 1
charge -1
@<TRIPOS>BOND
     1    43    44    1
     2    44    38    1
     3    38    39   ar
     4    39    40   ar
     5     1    40    1
     6     1    15    1
     7    15    16   ar
     8    16    17   ar
     9    17    21    1
    10    21    22    1
    11    22    23   ar
    12    22    24   ar
    13    17    18   ar
    14    18    19    2
    15    18    20   ar
    16     1     2    1
    17     2     3    1
    18     3    25    1
    19    25    26   ar
    20    26    27   ar
    21    27    31    1
    22    31    32   ar
    23    32    33   ar
    24    33    34   ar
    25    34    35    1
    26    34    36   ar
    27    36    37   ar
    28    27    28   ar
    29    28    29   ar
    30     3     4    1
    31     4     5    1
    32     5     6    2
    33     6     7    1
    34     7     8    2
    35     8     9    1
    36     9    10    1
    37    10    11    2
    38    11    12    1
    39    12    13    2
    40    40    41   ar
    41    41    42   ar
    42    42    38   ar
    43     6     1    1
    44    13     8    1
    45    20    15   ar
    46    29    25   ar
    47    13     5    1
    48    37    31   ar
    49     2    14    1
    50    29    30    1
@<TRIPOS>MOLECULE
*****
 44 50 0 0 0
SMALL
GASTEIGER

@<TRIPOS>ATOM
      1 C         142.3070  140.5739  158.5592 C.3     1  UNL1        0.1707
      2 N         141.5827  140.2760  159.8385 N.3     1  UNL1       -0.2797
      3 C         140.7907  139.0095  159.9745 C.3     1  UNL1        0.1167
      4 C         140.7229  138.0408  158.8312 C.3     1  UNL1        0.0511
      5 C         141.4472  138.3387  157.5519 C.2     1  UNL1       -0.0037
      6 C         142.2393  139.6053  157.4159 C.2     1  UNL1        0.0800
      7 N         142.8445  139.6283  156.0436 N.2     1  UNL1       -0.2519
      8 C         142.4265  138.3761  155.3315 C.2     1  UNL1        0.0627
      9 C         142.7207  137.8586  153.9547 C.3     1  UNL1        0.0717
     10 C         142.1513  136.5440  153.5101 C.2     1  UNL1       -0.0198
     11 C         141.2877  135.7470  154.4423 C.2     1  UNL1       -0.0042
     12 C         140.9936  136.2645  155.8191 C.2     1  UNL1        0.0006
     13 C         141.5629  137.5790  156.2637 C.2     1  UNL1        0.0111
     14 H         140.9341  141.0473  159.9961 H       1  UNL1        0.1246
     15 C         143.1574  141.2952  157.5559 C.ar    1  UNL1        0.2493
     16 N         144.6313  141.1067  157.3515 N.ar    1  UNL1       -0.1282
     17 N         145.0679  142.0267  156.2500 N.ar    1  UNL1       -0.1772
     18 C         143.8638  142.7838  155.7738 C.ar    1  UNL1        0.4392
     19 O         143.8440  143.8123  154.6822 O.2     1  UNL1       -0.2210
     20 O         142.6830  142.3317  156.5809 O.2     1  UNL1       -0.3896
     21 C         146.4636  142.1652  155.7183 C.3     1  UNL1        0.1752
     22 C         147.5949  142.4761  156.6530 C.2     1  UNL1        0.0752
     23 O         148.9934  142.0630  156.3014 O.co2   1  UNL1       -0.5471
     24 O         147.3277  143.2001  157.9392 O.co2   1  UNL1       -0.5471
     25 C         140.0664  138.7115  161.2539 C.ar    1  UNL1        0.1319
     26 N         140.3310  139.3486  162.5858 N.ar    1  UNL1       -0.2282
     27 C         139.3785  138.7551  163.5809 C.ar    1  UNL1        0.1171
     28 C         138.5252  137.7511  162.8641 C.ar    1  UNL1        0.0942
     29 N         138.9503  137.7242  161.4258 N.ar    1  UNL1       -0.3385
     30 H         138.5646  137.1580  160.7189 H       1  UNL1        0.1672
     31 C         139.2941  139.1042  165.0374 C.ar    1  UNL1        0.1006
     32 C         138.1121  138.6610  165.8476 C.ar    1  UNL1        0.0230
     33 C         138.0277  139.0101  167.3039 C.ar    1  UNL1        0.0328
     34 C         139.1253  139.8023  167.9500 C.ar    1  UNL1        0.1592
     35 F         139.0409  140.1514  169.4065 F       1  UNL1       -0.2025
     36 C         140.3073  140.2455  167.1398 C.ar    1  UNL1        0.1284
     37 N         140.3917  139.8965  165.6835 N.ar    1  UNL1       -0.2399
     38 N         143.6753  143.2525  161.0125 N.ar    1  UNL1       -0.2497
     39 C         143.6059  141.8354  160.5256 C.ar    1  UNL1        0.0944
     40 C         142.6701  141.7931  159.3540 C.ar    1  UNL1        0.0439
     41 C         142.1611  143.1841  159.1169 C.ar    1  UNL1        0.1194
     42 N         142.7824  144.0860  160.1419 N.ar    1  UNL1       -0.1679
     43 C         143.9098  144.7408  163.1290 C.3     1  UNL1        0.0284
     44 C         144.4939  143.7489  162.1673 C.3     1  UNL1        0.1276
@<TRIPOS>UNITY_ATOM_ATTR
23 1
charge -1
@<TRIPOS>BOND
     1    43    44    1
     2    44    38    1
     3    38    39   ar
     4    39    40   ar
     5     1    40    1
     6     1    15    1
     7    15    16   ar
     8    16    17   ar
     9    17    21    1
    10    21    22    1
    11    22    23   ar
    12    22    24   ar
    13    17    18   ar
    14    18    19    2
    15    18    20   ar
    16     1     2    1
    17     2     3    1
    18     3    25    1
    19    25    26   ar
    20    26    27   ar
    21    27    31    1
    22    31    32   ar
    23    32    33   ar
    24    33    34   ar
    25    34    35    1
    26    34    36   ar
    27    36    37   ar
    28    27    28   ar
    29    28    29   ar
    30     3     4    1
    31     4     5    1
    32     5     6    2
    33     6     7    1
    34     7     8    2
    35     8     9    1
    36     9    10    1
    37    10    11    2
    38    11    12    1
    39    12    13    2
    40    40    41   ar
    41    41    42   ar
    42    42    38   ar
    43     6     1    1
    44    13     8    1
    45    20    15   ar
    46    29    25   ar
    47    13     5    1
    48    37    31   ar
    49     2    14    1
    50    29    30    1
@<TRIPOS>MOLECULE
*****
 44 50 0 0 0
SMALL
GASTEIGER

@<TRIPOS>ATOM
      1 C         141.3503  140.9064  159.5120 C.3     1  UNL1        0.1707
      2 N         141.1238  140.0650  158.2911 N.3     1  UNL1       -0.2797
      3 C         140.4440  138.7334  158.4134 C.3     1  UNL1        0.1167
      4 C         139.9907  138.2434  159.7567 C.3     1  UNL1        0.0511
      5 C         140.2172  139.0848  160.9776 C.2     1  UNL1       -0.0037
      6 C         140.8970  140.4163  160.8553 C.2     1  UNL1        0.0800
      7 N         140.9824  141.0207  162.2254 N.2     1  UNL1       -0.2519
      8 C         140.3555  140.0627  163.1946 C.2     1  UNL1        0.0627
      9 C         140.1542  140.1253  164.6797 C.3     1  UNL1        0.0717
     10 C         139.4800  138.9914  165.3935 C.2     1  UNL1       -0.0198
     11 C         139.0070  137.7949  164.6223 C.2     1  UNL1       -0.0042
     12 C         139.2083  137.7323  163.1372 C.2     1  UNL1        0.0006
     13 C         139.8826  138.8662  162.4234 C.2     1  UNL1        0.0111
     14 H         142.0406  139.8908  157.8793 H       1  UNL1        0.1246
     15 C         141.7868  142.0568  160.3700 C.ar    1  UNL1        0.2493
     16 N         140.8993  143.1349  160.9174 N.ar    1  UNL1       -0.1282
     17 N         141.7516  144.0754  161.7169 N.ar    1  UNL1       -0.1772
     18 C         143.1658  143.5785  161.6635 C.ar    1  UNL1        0.4392
     19 O         144.3503  144.2170  162.3263 O.2     1  UNL1       -0.2210
     20 O         143.1876  142.3309  160.8310 O.2     1  UNL1       -0.3896
     21 C         141.2734  145.2981  162.4423 C.3     1  UNL1        0.1752
     22 C         139.8127  145.6389  162.4560 C.2     1  UNL1        0.0752
     23 O         138.9293  145.1099  163.5468 O.co2   1  UNL1       -0.5471
     24 O         139.2354  146.5086  161.3789 O.co2   1  UNL1       -0.5471
     25 C         140.2175  137.8919  157.1924 C.ar    1  UNL1        0.1319
     26 N         141.1374  136.8273  156.6725 N.ar    1  UNL1       -0.2282
     27 C         140.5198  136.2447  155.4358 C.ar    1  UNL1        0.1171
     28 C         139.2184  136.9494  155.1915 C.ar    1  UNL1        0.0942
     29 N         139.0316  137.9674  156.2772 N.ar    1  UNL1       -0.3385
     30 H         138.2651  138.5780  156.3723 H       1  UNL1        0.1672
     31 C         141.1016  135.1497  154.5917 C.ar    1  UNL1        0.1006
     32 C         141.9182  134.0648  155.2291 C.ar    1  UNL1        0.0230
     33 C         142.5000  132.9698  154.3850 C.ar    1  UNL1        0.0328
     34 C         142.2652  132.9598  152.9035 C.ar    1  UNL1        0.1592
     35 F         142.8471  131.8648  152.0594 F       1  UNL1       -0.2025
     36 C         141.4487  134.0447  152.2661 C.ar    1  UNL1        0.1284
     37 N         140.8669  135.1397  153.1102 N.ar    1  UNL1       -0.2399
     38 N         142.2784  143.6040  156.8801 N.ar    1  UNL1       -0.2497
     39 C         141.3275  143.0292  157.8878 C.ar    1  UNL1        0.0944
     40 C         141.9552  141.7960  158.4667 C.ar    1  UNL1        0.0439
     41 C         143.2941  141.6086  157.8168 C.ar    1  UNL1        0.1194
     42 N         143.4938  142.7260  156.8362 N.ar    1  UNL1       -0.1679
     43 C         141.3230  146.0091  156.6510 C.3     1  UNL1        0.0284
     44 C         142.0535  144.8398  156.0602 C.3     1  UNL1        0.1276
@<TRIPOS>UNITY_ATOM_ATTR
23 1
charge -1
@<TRIPOS>BOND
     1    43    44    1
     2    44    38    1
     3    38    39   ar
     4    39    40   ar
     5     1    40    1
     6     1    15    1
     7    15    16   ar
     8    16    17   ar
     9    17    21    1
    10    21    22    1
    11    22    23   ar
    12    22    24   ar
    13    17    18   ar
    14    18    19    2
    15    18    20   ar
    16     1     2    1
    17     2     3    1
    18     3    25    1
    19    25    26   ar
    20    26    27   ar
    21    27    31    1
    22    31    32   ar
    23    32    33   ar
    24    33    34   ar
    25    34    35    1
    26    34    36   ar
    27    36    37   ar
    28    27    28   ar
    29    28    29   ar
    30     3     4    1
    31     4     5    1
    32     5     6    2
    33     6     7    1
    34     7     8    2
    35     8     9    1
    36     9    10    1
    37    10    11    2
    38    11    12    1
    39    12    13    2
    40    40    41   ar
    41    41    42   ar
    42    42    38   ar
    43     6     1    1
    44    13     8    1
    45    20    15   ar
    46    29    25   ar
    47    13     5    1
    48    37    31   ar
    49     2    14    1
    50    29    30    1
