@<TRIPOS>MOLECULE
*****
 27 29 0 0 0
SMALL
GASTEIGER

@<TRIPOS>ATOM
      1 O         137.3203  141.8776  163.4562 O.2     1  UNL1       -0.2698
      2 C         138.3160  141.0683  162.6793 C.2     1  UNL1        0.2510
      3 N         139.2408  140.1289  163.3950 N.am    1  UNL1       -0.2803
      4 H         139.8943  139.5977  162.8851 H       1  UNL1        0.1552
      5 C         139.1699  139.9988  164.8878 C.ar    1  UNL1        0.0507
      6 C         138.2217  139.0178  165.5109 C.ar    1  UNL1        0.0178
      7 C         138.1508  138.8878  167.0036 C.ar    1  UNL1        0.0385
      8 C         139.0281  139.7388  167.8730 C.ar    1  UNL1        0.1469
      9 C         139.9763  140.7199  167.2499 C.ar    1  UNL1        0.0385
     10 C         140.0472  140.8499  165.7573 C.ar    1  UNL1        0.0178
     11 O         138.9572  139.6087  169.3658 O.3     1  UNL1       -0.4045
     12 C         139.8621  140.4316  170.2341 C.3     1  UNL1        0.5753
     13 F         140.7670  141.2545  171.1025 F       1  UNL1       -0.1328
     14 F         138.8586  141.5464  170.2235 F       1  UNL1       -0.1328
     15 F         140.8656  139.3168  170.2448 F       1  UNL1       -0.1328
     16 C         138.3869  141.1984  161.1866 C.ar    1  UNL1        0.0728
     17 C         137.7082  140.1859  160.3124 C.ar    1  UNL1        0.1034
     18 N         137.7791  140.3160  158.8198 N.ar    1  UNL1       -0.2422
     19 C         138.5288  141.4586  158.2013 C.ar    1  UNL1        0.0989
     20 C         139.2076  142.4710  159.0755 C.ar    1  UNL1        0.0223
     21 C         139.1366  142.3409  160.5681 C.ar    1  UNL1        0.0077
     22 C         139.9573  143.6136  158.4570 C.ar    1  UNL1        0.0399
     23 C         139.6329  144.0552  157.0607 C.ar    1  UNL1        0.1022
     24 N         140.3826  145.1977  156.4422 N.ar    1  UNL1       -0.2224
     25 C         141.4566  145.8987  157.2200 C.ar    1  UNL1        0.1989
     26 N         141.7810  145.4571  158.6163 N.ar    1  UNL1       -0.2224
     27 C         141.0313  144.3145  159.2348 C.ar    1  UNL1        0.1022
@<TRIPOS>BOND
     1     1     2    2
     2     2     3   am
     3     3     5    1
     4     5     6   ar
     5     6     7   ar
     6     7     8   ar
     7     8    11    1
     8    11    12    1
     9    12    13    1
    10    12    14    1
    11    12    15    1
    12     8     9   ar
    13     9    10   ar
    14     2    16    1
    15    16    17   ar
    16    17    18   ar
    17    18    19   ar
    18    19    20   ar
    19    20    22    1
    20    22    23   ar
    21    23    24   ar
    22    24    25   ar
    23    25    26   ar
    24    26    27   ar
    25    20    21   ar
    26    10     5   ar
    27    21    16   ar
    28    27    22   ar
    29     3     4    1
@<TRIPOS>MOLECULE
*****
 27 29 0 0 0
SMALL
GASTEIGER

@<TRIPOS>ATOM
      1 O         141.6171  137.5348  163.9527 O.2     1  UNL1       -0.2698
      2 C         140.9270  138.4705  163.0050 C.2     1  UNL1        0.2510
      3 N         139.9611  139.4914  163.5292 N.am    1  UNL1       -0.2803
      4 H         139.5082  140.1055  162.9071 H       1  UNL1        0.1552
      5 C         139.6853  139.5766  165.0012 C.ar    1  UNL1        0.0507
      6 C         140.5858  140.3850  165.8874 C.ar    1  UNL1        0.0178
      7 C         140.3100  140.4702  167.3593 C.ar    1  UNL1        0.0385
      8 C         139.1336  139.7469  167.9450 C.ar    1  UNL1        0.1469
      9 C         138.2331  138.9385  167.0588 C.ar    1  UNL1        0.0385
     10 C         138.5089  138.8533  165.5869 C.ar    1  UNL1        0.0178
     11 O         138.8578  139.8321  169.4170 O.3     1  UNL1       -0.4045
     12 C         139.8270  140.5327  170.3224 C.3     1  UNL1        0.5753
     13 F         140.7964  141.2332  171.2278 F       1  UNL1       -0.1328
     14 F         140.6642  139.2898  170.3878 F       1  UNL1       -0.1328
     15 F         138.9898  141.7755  170.2569 F       1  UNL1       -0.1328
     16 C         141.2028  138.3853  161.5329 C.ar    1  UNL1        0.0728
     17 C         142.4991  137.8098  161.0449 C.ar    1  UNL1        0.1034
     18 N         142.7749  137.7246  159.5729 N.ar    1  UNL1       -0.2422
     19 C         141.7543  138.2150  158.5891 C.ar    1  UNL1        0.0989
     20 C         140.4580  138.7905  159.0771 C.ar    1  UNL1        0.0223
     21 C         140.1823  138.8757  160.5491 C.ar    1  UNL1        0.0077
     22 C         139.4375  139.2808  158.0933 C.ar    1  UNL1        0.0399
     23 C         139.4553  138.7774  156.6804 C.ar    1  UNL1        0.1022
     24 N         138.4347  139.2677  155.6965 N.ar    1  UNL1       -0.2224
     25 C         137.3963  140.2616  156.1255 C.ar    1  UNL1        0.1989
     26 N         137.3785  140.7650  157.5383 N.ar    1  UNL1       -0.2224
     27 C         138.3991  140.2747  158.5222 C.ar    1  UNL1        0.1022
@<TRIPOS>BOND
     1     1     2    2
     2     2     3   am
     3     3     5    1
     4     5     6   ar
     5     6     7   ar
     6     7     8   ar
     7     8    11    1
     8    11    12    1
     9    12    13    1
    10    12    14    1
    11    12    15    1
    12     8     9   ar
    13     9    10   ar
    14     2    16    1
    15    16    17   ar
    16    17    18   ar
    17    18    19   ar
    18    19    20   ar
    19    20    22    1
    20    22    23   ar
    21    23    24   ar
    22    24    25   ar
    23    25    26   ar
    24    26    27   ar
    25    20    21   ar
    26    10     5   ar
    27    21    16   ar
    28    27    22   ar
    29     3     4    1
@<TRIPOS>MOLECULE
*****
 27 29 0 0 0
SMALL
GASTEIGER

@<TRIPOS>ATOM
      1 O         139.6161  137.7437  163.0124 O.2     1  UNL1       -0.2698
      2 C         139.2317  139.0693  162.4249 C.2     1  UNL1        0.2510
      3 N         138.9277  140.2292  163.3260 N.am    1  UNL1       -0.2803
      4 H         138.6754  141.0992  162.9404 H       1  UNL1        0.1552
      5 C         139.0081  140.0637  164.8147 C.ar    1  UNL1        0.0507
      6 C         140.0703  140.7820  165.5929 C.ar    1  UNL1        0.0178
      7 C         140.1507  140.6165  167.0815 C.ar    1  UNL1        0.0385
      8 C         139.1689  139.7326  167.7920 C.ar    1  UNL1        0.1469
      9 C         138.1067  139.0143  167.0138 C.ar    1  UNL1        0.0385
     10 C         138.0263  139.1798  165.5252 C.ar    1  UNL1        0.0178
     11 O         139.2493  139.5671  169.2807 O.3     1  UNL1       -0.4045
     12 C         140.1249  140.4769  170.0903 C.3     1  UNL1        0.5753
     13 F         141.0007  141.3868  170.8999 F       1  UNL1       -0.1328
     14 F         141.2140  139.4457  170.0713 F       1  UNL1       -0.1328
     15 F         139.0359  141.5082  170.1093 F       1  UNL1       -0.1328
     16 C         139.1512  139.2348  160.9362 C.ar    1  UNL1        0.0728
     17 C         137.9812  139.9451  160.3227 C.ar    1  UNL1        0.1034
     18 N         137.9008  140.1106  158.8340 N.ar    1  UNL1       -0.2422
     19 C         138.9905  139.5658  157.9589 C.ar    1  UNL1        0.0989
     20 C         140.1605  138.8554  158.5724 C.ar    1  UNL1        0.0223
     21 C         140.2408  138.6899  160.0610 C.ar    1  UNL1        0.0077
     22 C         141.2501  138.3106  157.6973 C.ar    1  UNL1        0.0399
     23 C         142.6258  138.9055  157.7543 C.ar    1  UNL1        0.1022
     24 N         143.7154  138.3607  156.8791 N.ar    1  UNL1       -0.2224
     25 C         143.4293  137.2208  155.9470 C.ar    1  UNL1        0.1989
     26 N         142.0536  136.6259  155.8900 N.ar    1  UNL1       -0.2224
     27 C         140.9640  137.1707  156.7652 C.ar    1  UNL1        0.1022
@<TRIPOS>BOND
     1     1     2    2
     2     2     3   am
     3     3     5    1
     4     5     6   ar
     5     6     7   ar
     6     7     8   ar
     7     8    11    1
     8    11    12    1
     9    12    13    1
    10    12    14    1
    11    12    15    1
    12     8     9   ar
    13     9    10   ar
    14     2    16    1
    15    16    17   ar
    16    17    18   ar
    17    18    19   ar
    18    19    20   ar
    19    20    22    1
    20    22    23   ar
    21    23    24   ar
    22    24    25   ar
    23    25    26   ar
    24    26    27   ar
    25    20    21   ar
    26    10     5   ar
    27    21    16   ar
    28    27    22   ar
    29     3     4    1
@<TRIPOS>MOLECULE
*****
 27 29 0 0 0
SMALL
GASTEIGER

@<TRIPOS>ATOM
      1 O         140.5563  137.1676  163.0037 O.2     1  UNL1       -0.2698
      2 C         141.0488  138.3499  162.2230 C.2     1  UNL1        0.2510
      3 N         141.8318  139.4290  162.9102 N.am    1  UNL1       -0.2803
      4 H         142.1550  140.2050  162.3978 H       1  UNL1        0.1552
      5 C         142.1223  139.3259  164.3783 C.ar    1  UNL1        0.0507
      6 C         143.3643  138.6296  164.8499 C.ar    1  UNL1        0.0178
      7 C         143.6548  138.5265  166.3179 C.ar    1  UNL1        0.0385
      8 C         142.7032  139.1196  167.3142 C.ar    1  UNL1        0.1469
      9 C         141.4612  139.8159  166.8426 C.ar    1  UNL1        0.0385
     10 C         141.1707  139.9190  165.3746 C.ar    1  UNL1        0.0178
     11 O         142.9937  139.0164  168.7822 O.3     1  UNL1       -0.4045
     12 C         142.4112  140.0185  169.7343 C.3     1  UNL1        0.5753
     13 F         141.8286  141.0206  170.6864 F       1  UNL1       -0.1328
     14 F         141.3828  139.0140  170.1623 F       1  UNL1       -0.1328
     15 F         143.4396  141.0230  169.3062 F       1  UNL1       -0.1328
     16 C         140.7583  138.4531  160.7550 C.ar    1  UNL1        0.0728
     17 C         139.3490  138.6523  160.2815 C.ar    1  UNL1        0.1034
     18 N         139.0585  138.7555  158.8136 N.ar    1  UNL1       -0.2422
     19 C         140.1774  138.6594  157.8191 C.ar    1  UNL1        0.0989
     20 C         141.5866  138.4601  158.2925 C.ar    1  UNL1        0.0223
     21 C         141.8771  138.3569  159.7605 C.ar    1  UNL1        0.0077
     22 C         142.7054  138.3640  157.2980 C.ar    1  UNL1        0.0399
     23 C         143.0606  137.0375  156.6946 C.ar    1  UNL1        0.1022
     24 N         144.1794  136.9414  155.7001 N.ar    1  UNL1       -0.2224
     25 C         144.9431  138.1717  155.3090 C.ar    1  UNL1        0.1989
     26 N         144.5879  139.4982  155.9125 N.ar    1  UNL1       -0.2224
     27 C         143.4691  139.5944  156.9070 C.ar    1  UNL1        0.1022
@<TRIPOS>BOND
     1     1     2    2
     2     2     3   am
     3     3     5    1
     4     5     6   ar
     5     6     7   ar
     6     7     8   ar
     7     8    11    1
     8    11    12    1
     9    12    13    1
    10    12    14    1
    11    12    15    1
    12     8     9   ar
    13     9    10   ar
    14     2    16    1
    15    16    17   ar
    16    17    18   ar
    17    18    19   ar
    18    19    20   ar
    19    20    22    1
    20    22    23   ar
    21    23    24   ar
    22    24    25   ar
    23    25    26   ar
    24    26    27   ar
    25    20    21   ar
    26    10     5   ar
    27    21    16   ar
    28    27    22   ar
    29     3     4    1
@<TRIPOS>MOLECULE
*****
 27 29 0 0 0
SMALL
GASTEIGER

@<TRIPOS>ATOM
      1 O         138.3876  143.4343  163.7054 O.2     1  UNL1       -0.2698
      2 C         139.2366  142.6204  162.7744 C.2     1  UNL1        0.2510
      3 N         139.8873  141.3597  163.2616 N.am    1  UNL1       -0.2803
      4 H         140.4445  140.8255  162.6505 H       1  UNL1        0.1552
      5 C         139.6889  140.9129  164.6797 C.ar    1  UNL1        0.0507
      6 C         138.7050  139.8248  164.9926 C.ar    1  UNL1        0.0178
      7 C         138.5066  139.3781  166.4107 C.ar    1  UNL1        0.0385
      8 C         139.2922  140.0194  167.5159 C.ar    1  UNL1        0.1469
      9 C         140.2762  141.1074  167.2030 C.ar    1  UNL1        0.0385
     10 C         140.4745  141.5542  165.7850 C.ar    1  UNL1        0.0178
     11 O         139.0939  139.5726  168.9341 O.3     1  UNL1       -0.4045
     12 C         139.7954  140.2873  170.0507 C.3     1  UNL1        0.5753
     13 F         140.4971  141.0021  171.1674 F       1  UNL1       -0.1328
     14 F         140.9382  139.3209  169.9513 F       1  UNL1       -0.1328
     15 F         138.6526  141.2538  170.1501 F       1  UNL1       -0.1328
     16 C         139.4350  143.0672  161.3563 C.ar    1  UNL1        0.0728
     17 C         140.4466  144.1282  161.0388 C.ar    1  UNL1        0.1034
     18 N         140.6450  144.5749  159.6207 N.ar    1  UNL1       -0.2422
     19 C         139.8317  143.9607  158.5201 C.ar    1  UNL1        0.0989
     20 C         138.8201  142.8997  158.8376 C.ar    1  UNL1        0.0223
     21 C         138.6217  142.4529  160.2557 C.ar    1  UNL1        0.0077
     22 C         138.0068  142.2854  157.7370 C.ar    1  UNL1        0.0399
     23 C         137.6399  140.8322  157.7970 C.ar    1  UNL1        0.1022
     24 N         136.8266  140.2180  156.6964 N.ar    1  UNL1       -0.2224
     25 C         136.3803  141.0569  155.5359 C.ar    1  UNL1        0.1989
     26 N         136.7472  142.5100  155.4759 N.ar    1  UNL1       -0.2224
     27 C         137.5604  143.1243  156.5765 C.ar    1  UNL1        0.1022
@<TRIPOS>BOND
     1     1     2    2
     2     2     3   am
     3     3     5    1
     4     5     6   ar
     5     6     7   ar
     6     7     8   ar
     7     8    11    1
     8    11    12    1
     9    12    13    1
    10    12    14    1
    11    12    15    1
    12     8     9   ar
    13     9    10   ar
    14     2    16    1
    15    16    17   ar
    16    17    18   ar
    17    18    19   ar
    18    19    20   ar
    19    20    22    1
    20    22    23   ar
    21    23    24   ar
    22    24    25   ar
    23    25    26   ar
    24    26    27   ar
    25    20    21   ar
    26    10     5   ar
    27    21    16   ar
    28    27    22   ar
    29     3     4    1
@<TRIPOS>MOLECULE
*****
 27 29 0 0 0
SMALL
GASTEIGER

@<TRIPOS>ATOM
      1 O         140.7566  139.9289  161.6202 O.2     1  UNL1       -0.2698
      2 C         139.5664  139.3237  160.9367 C.2     1  UNL1        0.2510
      3 N         138.4180  138.8045  161.7500 N.am    1  UNL1       -0.2803
      4 H         137.6369  138.4073  161.3013 H       1  UNL1        0.1552
      5 C         138.4597  138.8906  163.2470 C.ar    1  UNL1        0.0507
      6 C         138.1512  140.1886  163.9325 C.ar    1  UNL1        0.0178
      7 C         138.1929  140.2746  165.4294 C.ar    1  UNL1        0.0385
      8 C         138.5430  139.0626  166.2408 C.ar    1  UNL1        0.1469
      9 C         138.8515  137.7646  165.5553 C.ar    1  UNL1        0.0385
     10 C         138.8098  137.6786  164.0584 C.ar    1  UNL1        0.0178
     11 O         138.5847  139.1487  167.7378 O.3     1  UNL1       -0.4045
     12 C         139.5893  140.0366  168.4103 C.3     1  UNL1        0.5753
     13 F         140.5940  140.9245  169.0829 F       1  UNL1       -0.1328
     14 F         140.5955  139.7015  167.3496 F       1  UNL1       -0.1328
     15 F         138.5830  140.3717  169.4711 F       1  UNL1       -0.1328
     16 C         139.5248  139.2376  159.4396 C.ar    1  UNL1        0.0728
     17 C         138.5003  140.0190  158.6717 C.ar    1  UNL1        0.1034
     18 N         138.4586  139.9329  157.1748 N.ar    1  UNL1       -0.2422
     19 C         139.4416  139.0654  156.4458 C.ar    1  UNL1        0.0989
     20 C         140.4661  138.2840  157.2138 C.ar    1  UNL1        0.0223
     21 C         140.5077  138.3701  158.7107 C.ar    1  UNL1        0.0077
     22 C         141.4490  137.4166  156.4848 C.ar    1  UNL1        0.0399
     23 C         141.0071  136.6211  155.2924 C.ar    1  UNL1        0.1022
     24 N         141.9900  135.7536  154.5634 N.ar    1  UNL1       -0.2224
     25 C         143.4148  135.6817  155.0268 C.ar    1  UNL1        0.1989
     26 N         143.8567  136.4772  156.2192 N.ar    1  UNL1       -0.2224
     27 C         142.8737  137.3446  156.9482 C.ar    1  UNL1        0.1022
@<TRIPOS>BOND
     1     1     2    2
     2     2     3   am
     3     3     5    1
     4     5     6   ar
     5     6     7   ar
     6     7     8   ar
     7     8    11    1
     8    11    12    1
     9    12    13    1
    10    12    14    1
    11    12    15    1
    12     8     9   ar
    13     9    10   ar
    14     2    16    1
    15    16    17   ar
    16    17    18   ar
    17    18    19   ar
    18    19    20   ar
    19    20    22    1
    20    22    23   ar
    21    23    24   ar
    22    24    25   ar
    23    25    26   ar
    24    26    27   ar
    25    20    21   ar
    26    10     5   ar
    27    21    16   ar
    28    27    22   ar
    29     3     4    1
@<TRIPOS>MOLECULE
*****
 27 29 0 0 0
SMALL
GASTEIGER

@<TRIPOS>ATOM
      1 O         137.4888  140.9112  163.0277 O.2     1  UNL1       -0.2698
      2 C         138.7170  140.2498  162.4764 C.2     1  UNL1        0.2510
      3 N         139.7179  139.6317  163.4070 N.am    1  UNL1       -0.2803
      4 H         140.5240  139.1976  163.0452 H       1  UNL1        0.1552
      5 C         139.4906  139.6751  164.8891 C.ar    1  UNL1        0.0507
      6 C         138.4320  138.8135  165.5111 C.ar    1  UNL1        0.0178
      7 C         138.2047  138.8569  166.9931 C.ar    1  UNL1        0.0385
      8 C         139.0362  139.7619  167.8532 C.ar    1  UNL1        0.1469
      9 C         140.0948  140.6235  167.2312 C.ar    1  UNL1        0.0385
     10 C         140.3221  140.5801  165.7492 C.ar    1  UNL1        0.0178
     11 O         138.8089  139.8053  169.3353 O.3     1  UNL1       -0.4045
     12 C         139.7828  140.5221  170.2227 C.3     1  UNL1        0.5753
     13 F         140.7568  141.2389  171.1102 F       1  UNL1       -0.1328
     14 F         140.6717  139.3138  170.2232 F       1  UNL1       -0.1328
     15 F         138.8940  141.7303  170.2223 F       1  UNL1       -0.1328
     16 C         138.9443  140.2064  160.9943 C.ar    1  UNL1        0.0728
     17 C         137.7842  140.0151  160.0629 C.ar    1  UNL1        0.1034
     18 N         138.0115  139.9717  158.5809 N.ar    1  UNL1       -0.2422
     19 C         139.3990  140.1197  158.0303 C.ar    1  UNL1        0.0989
     20 C         140.5590  140.3110  158.9617 C.ar    1  UNL1        0.0223
     21 C         140.3317  140.3544  160.4437 C.ar    1  UNL1        0.0077
     22 C         141.9465  140.4590  158.4110 C.ar    1  UNL1        0.0399
     23 C         142.5377  139.3706  157.5650 C.ar    1  UNL1        0.1022
     24 N         143.9251  139.5186  157.0144 N.ar    1  UNL1       -0.2224
     25 C         144.7213  140.7550  157.3098 C.ar    1  UNL1        0.1989
     26 N         144.1301  141.8434  158.1558 N.ar    1  UNL1       -0.2224
     27 C         142.7427  141.6954  158.7064 C.ar    1  UNL1        0.1022
@<TRIPOS>BOND
     1     1     2    2
     2     2     3   am
     3     3     5    1
     4     5     6   ar
     5     6     7   ar
     6     7     8   ar
     7     8    11    1
     8    11    12    1
     9    12    13    1
    10    12    14    1
    11    12    15    1
    12     8     9   ar
    13     9    10   ar
    14     2    16    1
    15    16    17   ar
    16    17    18   ar
    17    18    19   ar
    18    19    20   ar
    19    20    22    1
    20    22    23   ar
    21    23    24   ar
    22    24    25   ar
    23    25    26   ar
    24    26    27   ar
    25    20    21   ar
    26    10     5   ar
    27    21    16   ar
    28    27    22   ar
    29     3     4    1
@<TRIPOS>MOLECULE
*****
 27 29 0 0 0
SMALL
GASTEIGER

@<TRIPOS>ATOM
      1 O         137.6506  142.5612  163.1828 O.2     1  UNL1       -0.2698
      2 C         138.9424  142.0849  163.7783 C.2     1  UNL1        0.2510
      3 N         140.2484  142.5230  163.1848 N.am    1  UNL1       -0.2803
      4 H         141.0962  142.2104  163.5756 H       1  UNL1        0.1552
      5 C         140.2627  143.4375  161.9958 C.ar    1  UNL1        0.0507
      6 C         140.4603  142.8750  160.6194 C.ar    1  UNL1        0.0178
      7 C         140.4746  143.7895  159.4305 C.ar    1  UNL1        0.0385
      8 C         140.2914  145.2664  159.6180 C.ar    1  UNL1        0.1469
      9 C         140.0938  145.8288  160.9944 C.ar    1  UNL1        0.0385
     10 C         140.0795  144.9144  162.1833 C.ar    1  UNL1        0.0178
     11 O         140.3057  146.1809  158.4290 O.3     1  UNL1       -0.4045
     12 C         141.0366  145.7788  157.1824 C.3     1  UNL1        0.5753
     13 F         141.7674  145.3767  155.9357 F       1  UNL1       -0.1328
     14 F         139.7464  145.3113  156.5768 F       1  UNL1       -0.1328
     15 F         142.3267  146.2463  157.7880 F       1  UNL1       -0.1328
     16 C         138.9280  141.1704  164.9673 C.ar    1  UNL1        0.0728
     17 C         138.1727  139.8758  164.9087 C.ar    1  UNL1        0.1034
     18 N         138.1584  138.9614  166.0976 N.ar    1  UNL1       -0.2422
     19 C         138.8994  139.3417  167.3452 C.ar    1  UNL1        0.0989
     20 C         139.6547  140.6363  167.4038 C.ar    1  UNL1        0.0223
     21 C         139.6690  141.5506  166.2148 C.ar    1  UNL1        0.0077
     22 C         140.3957  141.0165  168.6513 C.ar    1  UNL1        0.0399
     23 C         139.6386  141.3229  169.9094 C.ar    1  UNL1        0.1022
     24 N         140.3796  141.7031  171.1569 N.ar    1  UNL1       -0.2224
     25 C         141.8777  141.7769  171.1464 C.ar    1  UNL1        0.1989
     26 N         142.6348  141.4705  169.8883 N.ar    1  UNL1       -0.2224
     27 C         141.8938  141.0903  168.6408 C.ar    1  UNL1        0.1022
@<TRIPOS>BOND
     1     1     2    2
     2     2     3   am
     3     3     5    1
     4     5     6   ar
     5     6     7   ar
     6     7     8   ar
     7     8    11    1
     8    11    12    1
     9    12    13    1
    10    12    14    1
    11    12    15    1
    12     8     9   ar
    13     9    10   ar
    14     2    16    1
    15    16    17   ar
    16    17    18   ar
    17    18    19   ar
    18    19    20   ar
    19    20    22    1
    20    22    23   ar
    21    23    24   ar
    22    24    25   ar
    23    25    26   ar
    24    26    27   ar
    25    20    21   ar
    26    10     5   ar
    27    21    16   ar
    28    27    22   ar
    29     3     4    1
@<TRIPOS>MOLECULE
*****
 27 29 0 0 0
SMALL
GASTEIGER

@<TRIPOS>ATOM
      1 O         142.1082  142.6995  164.0529 O.2     1  UNL1       -0.2698
      2 C         140.7590  143.3115  163.8181 C.2     1  UNL1        0.2510
      3 N         139.6443  143.0657  164.7912 N.am    1  UNL1       -0.2803
      4 H         138.7587  143.4673  164.6370 H       1  UNL1        0.1552
      5 C         139.8787  142.2079  165.9992 C.ar    1  UNL1        0.0507
      6 C         139.4486  140.7709  165.9937 C.ar    1  UNL1        0.0178
      7 C         139.6830  139.9132  167.2016 C.ar    1  UNL1        0.0385
      8 C         140.3477  140.4924  168.4152 C.ar    1  UNL1        0.1469
      9 C         140.7779  141.9294  168.4208 C.ar    1  UNL1        0.0385
     10 C         140.5434  142.7871  167.2128 C.ar    1  UNL1        0.0178
     11 O         140.5822  139.6346  169.6232 O.3     1  UNL1       -0.4045
     12 C         141.9021  139.6849  170.3340 C.3     1  UNL1        0.5753
     13 F         143.2220  139.7352  171.0449 F       1  UNL1       -0.1328
     14 F         141.3196  140.6228  171.3494 F       1  UNL1       -0.1328
     15 F         142.4846  138.7470  169.3187 F       1  UNL1       -0.1328
     16 C         140.5245  144.1693  162.6100 C.ar    1  UNL1        0.0728
     17 C         139.6295  145.3693  162.7046 C.ar    1  UNL1        0.1034
     18 N         139.3951  146.2270  161.4966 N.ar    1  UNL1       -0.2422
     19 C         140.0556  145.8847  160.1941 C.ar    1  UNL1        0.0989
     20 C         140.9506  144.6848  160.0996 C.ar    1  UNL1        0.0223
     21 C         141.1851  143.8270  161.3075 C.ar    1  UNL1        0.0077
     22 C         141.6112  144.3425  158.7971 C.ar    1  UNL1        0.0399
     23 C         141.6644  145.3572  157.6937 C.ar    1  UNL1        0.1022
     24 N         142.3250  145.0150  156.3912 N.ar    1  UNL1       -0.2224
     25 C         142.9324  143.6580  156.1920 C.ar    1  UNL1        0.1989
     26 N         142.8791  142.6433  157.2954 N.ar    1  UNL1       -0.2224
     27 C         142.2186  142.9855  158.5979 C.ar    1  UNL1        0.1022
@<TRIPOS>BOND
     1     1     2    2
     2     2     3   am
     3     3     5    1
     4     5     6   ar
     5     6     7   ar
     6     7     8   ar
     7     8    11    1
     8    11    12    1
     9    12    13    1
    10    12    14    1
    11    12    15    1
    12     8     9   ar
    13     9    10   ar
    14     2    16    1
    15    16    17   ar
    16    17    18   ar
    17    18    19   ar
    18    19    20   ar
    19    20    22    1
    20    22    23   ar
    21    23    24   ar
    22    24    25   ar
    23    25    26   ar
    24    26    27   ar
    25    20    21   ar
    26    10     5   ar
    27    21    16   ar
    28    27    22   ar
    29     3     4    1
