@<TRIPOS>MOLECULE
*****
 29 31 0 0 0
SMALL
GASTEIGER

@<TRIPOS>ATOM
      1 N         139.8695  145.0546  170.2719 N.pl3   1  UNL1       -0.3375
      2 C         140.4305  143.7007  169.9523 C.ar    1  UNL1        0.1568
      3 N         140.3522  143.0045  168.6260 N.ar    1  UNL1       -0.2242
      4 C         141.0417  141.6788  168.7569 C.ar    1  UNL1        0.0967
      5 C         141.2753  140.5679  167.7765 C.ar    1  UNL1        0.0747
      6 C         142.0135  139.3337  168.2033 C.ar    1  UNL1        0.0458
      7 C         142.5180  139.2106  169.6105 C.ar    1  UNL1        0.1682
      8 O         143.2562  137.9766  170.0374 O.3     1  UNL1       -0.5029
      9 C         142.2844  140.3216  170.5910 C.ar    1  UNL1        0.1751
     10 O         142.7889  140.1985  171.9982 O.3     1  UNL1       -0.5025
     11 C         141.5462  141.5557  170.1641 C.ar    1  UNL1        0.0865
     12 S         141.1685  142.8053  170.9029 S.2     1  UNL1       -0.0488
     13 H         139.3986  145.5689  169.5770 H       1  UNL1        0.1442
     14 H         139.9721  145.4289  171.1767 H       1  UNL1        0.1442
     15 H         143.4021  137.2826  169.4250 H       1  UNL1        0.2923
     16 H         143.2500  139.4276  172.2648 H       1  UNL1        0.2923
     17 C         140.7708  140.6910  166.3693 C.2     1  UNL1        0.2477
     18 O         141.6426  140.2771  165.2210 O.2     1  UNL1       -0.2701
     19 N         139.3943  141.2280  166.1103 N.am    1  UNL1       -0.2969
     20 H         138.8221  141.4997  166.8640 H       1  UNL1        0.1501
     21 C         138.8898  141.3511  164.7031 C.3     1  UNL1        0.1166
     22 C         139.0560  142.6417  163.9570 C.ar    1  UNL1       -0.0017
     23 C         137.8556  143.3410  163.3912 C.ar    1  UNL1       -0.0017
     24 C         138.0218  144.6315  162.6451 C.ar    1  UNL1        0.0120
     25 C         139.3885  145.2229  162.4647 C.ar    1  UNL1        0.0682
     26 CL        139.5547  146.5135  161.7185 Cl      1  UNL1       -0.0814
     27 C         140.5889  144.5237  163.0304 C.ar    1  UNL1        0.0679
     28 CL        141.9555  145.1150  162.8500 Cl      1  UNL1       -0.0814
     29 C         140.4226  143.2330  163.7765 C.ar    1  UNL1        0.0096
@<TRIPOS>BOND
     1     1     2    1
     2     2     3   ar
     3     3     4   ar
     4     4     5   ar
     5     5    17    1
     6    17    18    2
     7    17    19   am
     8    19    21    1
     9    21    22    1
    10    22    23   ar
    11    23    24   ar
    12    24    25   ar
    13    25    26    1
    14    25    27   ar
    15    27    28    1
    16    27    29   ar
    17     5     6   ar
    18     6     7   ar
    19     7     8    1
    20     7     9   ar
    21     9    10    1
    22     9    11   ar
    23    11    12   ar
    24    12     2   ar
    25    11     4   ar
    26    29    22   ar
    27     1    13    1
    28     1    14    1
    29    19    20    1
    30     8    15    1
    31    10    16    1
@<TRIPOS>MOLECULE
*****
 29 31 0 0 0
SMALL
GASTEIGER

@<TRIPOS>ATOM
      1 N         143.3412  143.6695  171.0797 N.pl3   1  UNL1       -0.3375
      2 C         142.4704  142.8101  170.2119 C.ar    1  UNL1        0.1568
      3 N         142.6187  142.6152  168.7320 N.ar    1  UNL1       -0.2242
      4 C         141.5384  141.6794  168.2770 C.ar    1  UNL1        0.0967
      5 C         141.1923  141.1269  166.9261 C.ar    1  UNL1        0.0747
      6 C         140.0301  140.1908  166.7739 C.ar    1  UNL1        0.0458
      7 C         139.2140  139.8073  167.9726 C.ar    1  UNL1        0.1682
      8 O         138.0518  138.8713  167.8204 O.3     1  UNL1       -0.5029
      9 C         139.5601  140.3598  169.3236 C.ar    1  UNL1        0.1751
     10 O         138.7440  139.9763  170.5223 O.3     1  UNL1       -0.5025
     11 C         140.7223  141.2958  169.4758 C.ar    1  UNL1        0.0865
     12 S         141.2983  141.9946  170.6715 S.2     1  UNL1       -0.0488
     13 H         144.0908  144.1695  170.6831 H       1  UNL1        0.1442
     14 H         143.1631  143.7335  172.0458 H       1  UNL1        0.1442
     15 H         137.8356  138.5261  166.9766 H       1  UNL1        0.2923
     16 H         138.0181  139.3916  170.4272 H       1  UNL1        0.2923
     17 C         142.0084  141.5104  165.7274 C.2     1  UNL1        0.2477
     18 O         142.3237  140.4878  164.6764 O.2     1  UNL1       -0.2701
     19 N         142.5091  142.9167  165.5798 N.am    1  UNL1       -0.2969
     20 H         142.3021  143.5879  166.2696 H       1  UNL1        0.1501
     21 C         143.3252  143.3002  164.3811 C.3     1  UNL1        0.1166
     22 C         142.6443  143.7613  163.1265 C.ar    1  UNL1       -0.0017
     23 C         143.0587  143.2001  161.7986 C.ar    1  UNL1       -0.0017
     24 C         142.3779  143.6611  160.5441 C.ar    1  UNL1        0.0120
     25 C         141.2826  144.6834  160.6175 C.ar    1  UNL1        0.0682
     26 CL        140.6017  145.1444  159.3630 Cl      1  UNL1       -0.0814
     27 C         140.8682  145.2446  161.9454 C.ar    1  UNL1        0.0679
     28 CL        139.7729  146.2668  162.0188 Cl      1  UNL1       -0.0814
     29 C         141.5491  144.7835  163.1999 C.ar    1  UNL1        0.0096
@<TRIPOS>BOND
     1     1     2    1
     2     2     3   ar
     3     3     4   ar
     4     4     5   ar
     5     5    17    1
     6    17    18    2
     7    17    19   am
     8    19    21    1
     9    21    22    1
    10    22    23   ar
    11    23    24   ar
    12    24    25   ar
    13    25    26    1
    14    25    27   ar
    15    27    28    1
    16    27    29   ar
    17     5     6   ar
    18     6     7   ar
    19     7     8    1
    20     7     9   ar
    21     9    10    1
    22     9    11   ar
    23    11    12   ar
    24    12     2   ar
    25    11     4   ar
    26    29    22   ar
    27     1    13    1
    28     1    14    1
    29    19    20    1
    30     8    15    1
    31    10    16    1
@<TRIPOS>MOLECULE
*****
 29 31 0 0 0
SMALL
GASTEIGER

@<TRIPOS>ATOM
      1 N         143.5397  143.6555  171.0894 N.pl3   1  UNL1       -0.3375
      2 C         142.6099  142.8211  170.2593 C.ar    1  UNL1        0.1568
      3 N         142.6194  142.7137  168.7632 N.ar    1  UNL1       -0.2242
      4 C         141.5226  141.7737  168.3589 C.ar    1  UNL1        0.0967
      5 C         141.0610  141.2878  167.0170 C.ar    1  UNL1        0.0747
      6 C         139.9120  140.3283  166.9212 C.ar    1  UNL1        0.0458
      7 C         139.2246  139.8547  168.1675 C.ar    1  UNL1        0.1682
      8 O         138.0756  138.8953  168.0718 O.3     1  UNL1       -0.5029
      9 C         139.6862  140.3406  169.5095 C.ar    1  UNL1        0.1751
     10 O         138.9988  139.8671  170.7557 O.3     1  UNL1       -0.5025
     11 C         140.8352  141.3001  169.6052 C.ar    1  UNL1        0.0865
     12 S         141.5072  141.9474  170.7797 S.2     1  UNL1       -0.0488
     13 H         144.2356  144.1986  170.6534 H       1  UNL1        0.1442
     14 H         143.4542  143.6602  172.0701 H       1  UNL1        0.1442
     15 H         137.7872  138.5917  167.2336 H       1  UNL1        0.2923
     16 H         138.2810  139.2677  170.6960 H       1  UNL1        0.2923
     17 C         141.7485  141.7614  165.7707 C.2     1  UNL1        0.2477
     18 O         141.4270  141.1275  164.4498 O.2     1  UNL1       -0.2701
     19 N         142.7573  142.8690  165.8454 N.am    1  UNL1       -0.2969
     20 H         142.9683  143.2851  166.7124 H       1  UNL1        0.1501
     21 C         143.4448  143.3426  164.5991 C.3     1  UNL1        0.1166
     22 C         142.6395  143.9088  163.4674 C.ar    1  UNL1       -0.0017
     23 C         141.5528  144.9048  163.7449 C.ar    1  UNL1       -0.0017
     24 C         140.7475  145.4710  162.6132 C.ar    1  UNL1        0.0120
     25 C         141.0289  145.0412  161.2038 C.ar    1  UNL1        0.0682
     26 CL        140.2236  145.6073  160.0721 Cl      1  UNL1       -0.0814
     27 C         142.1156  144.0451  160.9263 C.ar    1  UNL1        0.0679
     28 CL        142.3970  143.6153  159.5171 Cl      1  UNL1       -0.0814
     29 C         142.9209  143.4789  162.0582 C.ar    1  UNL1        0.0096
@<TRIPOS>BOND
     1     1     2    1
     2     2     3   ar
     3     3     4   ar
     4     4     5   ar
     5     5    17    1
     6    17    18    2
     7    17    19   am
     8    19    21    1
     9    21    22    1
    10    22    23   ar
    11    23    24   ar
    12    24    25   ar
    13    25    26    1
    14    25    27   ar
    15    27    28    1
    16    27    29   ar
    17     5     6   ar
    18     6     7   ar
    19     7     8    1
    20     7     9   ar
    21     9    10    1
    22     9    11   ar
    23    11    12   ar
    24    12     2   ar
    25    11     4   ar
    26    29    22   ar
    27     1    13    1
    28     1    14    1
    29    19    20    1
    30     8    15    1
    31    10    16    1
@<TRIPOS>MOLECULE
*****
 29 31 0 0 0
SMALL
GASTEIGER

@<TRIPOS>ATOM
      1 N         138.0392  138.9180  167.7172 N.pl3   1  UNL1       -0.3375
      2 C         139.1677  139.7909  168.1804 C.ar    1  UNL1        0.1568
      3 N         140.3468  140.2183  167.3575 N.ar    1  UNL1       -0.2242
      4 C         141.2231  141.0812  168.2163 C.ar    1  UNL1        0.0967
      5 C         142.5191  141.7842  167.9406 C.ar    1  UNL1        0.0747
      6 C         143.1777  142.5931  169.0185 C.ar    1  UNL1        0.0458
      7 C         142.5403  142.6990  170.3722 C.ar    1  UNL1        0.1682
      8 O         143.1988  143.5079  171.4501 O.3     1  UNL1       -0.5029
      9 C         141.2442  141.9960  170.6479 C.ar    1  UNL1        0.1751
     10 O         140.6067  142.1019  172.0015 O.3     1  UNL1       -0.5025
     11 C         140.5856  141.1871  169.5700 C.ar    1  UNL1        0.0865
     12 S         139.3153  140.3897  169.5477 S.2     1  UNL1       -0.0488
     13 H         138.0312  138.5713  166.7958 H       1  UNL1        0.1442
     14 H         137.3065  138.6917  168.3347 H       1  UNL1        0.1442
     15 H         144.0084  143.9471  171.2779 H       1  UNL1        0.2923
     16 H         141.0181  142.6072  172.6749 H       1  UNL1        0.2923
     17 C         143.1566  141.6783  166.5869 C.2     1  UNL1        0.2477
     18 O         143.1893  140.3587  165.8745 O.2     1  UNL1       -0.2701
     19 N         143.7614  142.8920  165.9457 N.am    1  UNL1       -0.2969
     20 H         143.7399  143.7581  166.4133 H       1  UNL1        0.1501
     21 C         144.3989  142.7861  164.5920 C.3     1  UNL1        0.1166
     22 C         143.6515  143.2403  163.3734 C.ar    1  UNL1       -0.0017
     23 C         144.0422  142.7270  162.0192 C.ar    1  UNL1       -0.0017
     24 C         143.2948  143.1812  160.8006 C.ar    1  UNL1        0.0120
     25 C         142.1566  144.1488  160.9362 C.ar    1  UNL1        0.0682
     26 CL        141.4091  144.6030  159.7176 Cl      1  UNL1       -0.0814
     27 C         141.7658  144.6621  162.2904 C.ar    1  UNL1        0.0679
     28 CL        140.6276  145.6296  162.4260 Cl      1  UNL1       -0.0814
     29 C         142.5133  144.2078  163.5090 C.ar    1  UNL1        0.0096
@<TRIPOS>BOND
     1     1     2    1
     2     2     3   ar
     3     3     4   ar
     4     4     5   ar
     5     5    17    1
     6    17    18    2
     7    17    19   am
     8    19    21    1
     9    21    22    1
    10    22    23   ar
    11    23    24   ar
    12    24    25   ar
    13    25    26    1
    14    25    27   ar
    15    27    28    1
    16    27    29   ar
    17     5     6   ar
    18     6     7   ar
    19     7     8    1
    20     7     9   ar
    21     9    10    1
    22     9    11   ar
    23    11    12   ar
    24    12     2   ar
    25    11     4   ar
    26    29    22   ar
    27     1    13    1
    28     1    14    1
    29    19    20    1
    30     8    15    1
    31    10    16    1
@<TRIPOS>MOLECULE
*****
 29 31 0 0 0
SMALL
GASTEIGER

@<TRIPOS>ATOM
      1 N         137.8885  138.8691  167.9641 N.pl3   1  UNL1       -0.3375
      2 C         139.0642  139.7359  168.3053 C.ar    1  UNL1        0.1568
      3 N         140.2336  140.0271  167.4122 N.ar    1  UNL1       -0.2242
      4 C         141.1691  140.9348  168.1544 C.ar    1  UNL1        0.0967
      5 C         142.4829  141.5505  167.7740 C.ar    1  UNL1        0.0747
      6 C         143.2055  142.4361  168.7454 C.ar    1  UNL1        0.0458
      7 C         142.6142  142.7059  170.0973 C.ar    1  UNL1        0.1682
      8 O         143.3368  143.5915  171.0687 O.3     1  UNL1       -0.5029
      9 C         141.3003  142.0902  170.4777 C.ar    1  UNL1        0.1751
     10 O         140.7091  142.3600  171.8296 O.3     1  UNL1       -0.5025
     11 C         140.5778  141.2046  169.5063 C.ar    1  UNL1        0.0865
     12 S         139.2769  140.4637  169.5995 S.2     1  UNL1       -0.0488
     13 H         137.8387  138.4313  167.0837 H       1  UNL1        0.1442
     14 H         137.1666  138.7380  168.6205 H       1  UNL1        0.1442
     15 H         144.1575  143.9761  170.8311 H       1  UNL1        0.2923
     16 H         141.1604  142.9132  172.4364 H       1  UNL1        0.2923
     17 C         143.0741  141.2807  166.4221 C.2     1  UNL1        0.2477
     18 O         143.4858  142.4233  165.5419 O.2     1  UNL1       -0.2701
     19 N         143.2538  139.8681  165.9504 N.am    1  UNL1       -0.2969
     20 H         142.9836  139.1181  166.5282 H       1  UNL1        0.1501
     21 C         143.8450  139.5982  164.5985 C.3     1  UNL1        0.1166
     22 C         142.9477  139.3154  163.4303 C.ar    1  UNL1       -0.0017
     23 C         143.3574  139.7373  162.0504 C.ar    1  UNL1       -0.0017
     24 C         142.4601  139.4545  160.8822 C.ar    1  UNL1        0.0120
     25 C         141.1529  138.7499  161.0939 C.ar    1  UNL1        0.0682
     26 CL        140.2555  138.4671  159.9257 Cl      1  UNL1       -0.0814
     27 C         140.7431  138.3280  162.4738 C.ar    1  UNL1        0.0679
     28 CL        139.4360  137.6233  162.6855 Cl      1  UNL1       -0.0814
     29 C         141.6406  138.6108  163.6420 C.ar    1  UNL1        0.0096
@<TRIPOS>BOND
     1     1     2    1
     2     2     3   ar
     3     3     4   ar
     4     4     5   ar
     5     5    17    1
     6    17    18    2
     7    17    19   am
     8    19    21    1
     9    21    22    1
    10    22    23   ar
    11    23    24   ar
    12    24    25   ar
    13    25    26    1
    14    25    27   ar
    15    27    28    1
    16    27    29   ar
    17     5     6   ar
    18     6     7   ar
    19     7     8    1
    20     7     9   ar
    21     9    10    1
    22     9    11   ar
    23    11    12   ar
    24    12     2   ar
    25    11     4   ar
    26    29    22   ar
    27     1    13    1
    28     1    14    1
    29    19    20    1
    30     8    15    1
    31    10    16    1
@<TRIPOS>MOLECULE
*****
 29 31 0 0 0
SMALL
GASTEIGER

@<TRIPOS>ATOM
      1 N         143.4525  143.7430  171.2377 N.pl3   1  UNL1       -0.3375
      2 C         142.5877  142.9065  170.3419 C.ar    1  UNL1        0.1568
      3 N         142.7073  142.7988  168.8506 N.ar    1  UNL1       -0.2242
      4 C         141.6449  141.8566  168.3672 C.ar    1  UNL1        0.0967
      5 C         141.2841  141.3695  166.9952 C.ar    1  UNL1        0.0747
      6 C         140.1470  140.4077  166.8157 C.ar    1  UNL1        0.0458
      7 C         139.3709  139.9331  168.0083 C.ar    1  UNL1        0.1682
      8 O         138.2339  138.9713  167.8288 O.3     1  UNL1       -0.5029
      9 C         139.7318  140.4202  169.3803 C.ar    1  UNL1        0.1751
     10 O         138.9556  139.9456  170.5729 O.3     1  UNL1       -0.5025
     11 C         140.8688  141.3819  169.5598 C.ar    1  UNL1        0.0865
     12 S         141.4514  142.0309  170.7802 S.2     1  UNL1       -0.0488
     13 H         144.1774  144.2873  170.8538 H       1  UNL1        0.1442
     14 H         143.2951  143.7478  172.2095 H       1  UNL1        0.1442
     15 H         138.0085  138.6670  166.9718 H       1  UNL1        0.2923
     16 H         138.2453  139.3448  170.4608 H       1  UNL1        0.2923
     17 C         142.0603  141.8441  165.8026 C.2     1  UNL1        0.2477
     18 O         141.3410  142.4335  164.6256 O.2     1  UNL1       -0.2701
     19 N         143.5559  141.7294  165.7869 N.am    1  UNL1       -0.2969
     20 H         144.0280  141.3426  166.5594 H       1  UNL1        0.1501
     21 C         144.3320  142.2040  164.5944 C.3     1  UNL1        0.1166
     22 C         144.1328  141.5480  163.2603 C.ar    1  UNL1       -0.0017
     23 C         143.8781  142.3864  162.0428 C.ar    1  UNL1       -0.0017
     24 C         143.6788  141.7303  160.7087 C.ar    1  UNL1        0.0120
     25 C         143.7343  140.2359  160.5920 C.ar    1  UNL1        0.0682
     26 CL        143.5350  139.5798  159.2579 Cl      1  UNL1       -0.0814
     27 C         143.9889  139.3975  161.8095 C.ar    1  UNL1        0.0679
     28 CL        144.0444  137.9031  161.6929 Cl      1  UNL1       -0.0814
     29 C         144.1882  140.0536  163.1436 C.ar    1  UNL1        0.0096
@<TRIPOS>BOND
     1     1     2    1
     2     2     3   ar
     3     3     4   ar
     4     4     5   ar
     5     5    17    1
     6    17    18    2
     7    17    19   am
     8    19    21    1
     9    21    22    1
    10    22    23   ar
    11    23    24   ar
    12    24    25   ar
    13    25    26    1
    14    25    27   ar
    15    27    28    1
    16    27    29   ar
    17     5     6   ar
    18     6     7   ar
    19     7     8    1
    20     7     9   ar
    21     9    10    1
    22     9    11   ar
    23    11    12   ar
    24    12     2   ar
    25    11     4   ar
    26    29    22   ar
    27     1    13    1
    28     1    14    1
    29    19    20    1
    30     8    15    1
    31    10    16    1
@<TRIPOS>MOLECULE
*****
 29 31 0 0 0
SMALL
GASTEIGER

@<TRIPOS>ATOM
      1 N         139.6194  139.3052  171.5130 N.pl3   1  UNL1       -0.3375
      2 C         140.3489  139.9708  170.3840 C.ar    1  UNL1        0.1568
      3 N         139.9847  139.8923  168.9310 N.ar    1  UNL1       -0.2242
      4 C         140.9814  140.7048  168.1586 C.ar    1  UNL1        0.0967
      5 C         141.1230  140.9909  166.6930 C.ar    1  UNL1        0.0747
      6 C         142.2449  141.8577  166.2030 C.ar    1  UNL1        0.0458
      7 C         143.2251  142.4384  167.1787 C.ar    1  UNL1        0.1682
      8 O         144.3470  143.3052  166.6887 O.3     1  UNL1       -0.5029
      9 C         143.0835  142.1523  168.6444 C.ar    1  UNL1        0.1751
     10 O         144.0637  142.7330  169.6200 O.3     1  UNL1       -0.5025
     11 C         141.9616  141.2855  169.1343 C.ar    1  UNL1        0.0865
     12 S         141.5707  140.8319  170.5096 S.2     1  UNL1       -0.0488
     13 H         138.8229  138.7567  171.3290 H       1  UNL1        0.1442
     14 H         139.9372  139.4168  172.4381 H       1  UNL1        0.1442
     15 H         144.4355  143.4839  165.7732 H       1  UNL1        0.2923
     16 H         144.7645  143.2744  169.3140 H       1  UNL1        0.2923
     17 C         140.1428  140.4102  165.7174 C.2     1  UNL1        0.2477
     18 O         139.5170  141.2853  164.6721 O.2     1  UNL1       -0.2701
     19 N         139.7883  138.9543  165.7870 N.am    1  UNL1       -0.2969
     20 H         140.1990  138.3799  166.4730 H       1  UNL1        0.1501
     21 C         138.8080  138.3736  164.8113 C.3     1  UNL1        0.1166
     22 C         139.1045  138.4056  163.3413 C.ar    1  UNL1       -0.0017
     23 C         138.0275  138.7806  162.3669 C.ar    1  UNL1       -0.0017
     24 C         138.3240  138.8126  160.8969 C.ar    1  UNL1        0.0120
     25 C         139.6976  138.4698  160.4012 C.ar    1  UNL1        0.0682
     26 CL        139.9941  138.5018  158.9312 Cl      1  UNL1       -0.0814
     27 C         140.7747  138.0948  161.3755 C.ar    1  UNL1        0.0679
     28 CL        142.1482  137.7520  160.8799 Cl      1  UNL1       -0.0814
     29 C         140.4781  138.0628  162.8456 C.ar    1  UNL1        0.0096
@<TRIPOS>BOND
     1     1     2    1
     2     2     3   ar
     3     3     4   ar
     4     4     5   ar
     5     5    17    1
     6    17    18    2
     7    17    19   am
     8    19    21    1
     9    21    22    1
    10    22    23   ar
    11    23    24   ar
    12    24    25   ar
    13    25    26    1
    14    25    27   ar
    15    27    28    1
    16    27    29   ar
    17     5     6   ar
    18     6     7   ar
    19     7     8    1
    20     7     9   ar
    21     9    10    1
    22     9    11   ar
    23    11    12   ar
    24    12     2   ar
    25    11     4   ar
    26    29    22   ar
    27     1    13    1
    28     1    14    1
    29    19    20    1
    30     8    15    1
    31    10    16    1
@<TRIPOS>MOLECULE
*****
 29 31 0 0 0
SMALL
GASTEIGER

@<TRIPOS>ATOM
      1 N         137.9027  139.5431  165.6494 N.pl3   1  UNL1       -0.3375
      2 C         138.9022  139.9289  166.6992 C.ar    1  UNL1        0.1568
      3 N         140.1167  140.7837  166.4885 N.ar    1  UNL1       -0.2242
      4 C         140.8279  140.9107  167.8031 C.ar    1  UNL1        0.0967
      5 C         142.0810  141.6329  168.2006 C.ar    1  UNL1        0.0747
      6 C         142.5592  141.5789  169.6214 C.ar    1  UNL1        0.0458
      7 C         141.7842  140.8027  170.6445 C.ar    1  UNL1        0.1682
      8 O         142.2623  140.7486  172.0652 O.3     1  UNL1       -0.5029
      9 C         140.5310  140.0804  170.2469 C.ar    1  UNL1        0.1751
     10 O         139.7561  139.3042  171.2701 O.3     1  UNL1       -0.5025
     11 C         140.0529  140.1345  168.8262 C.ar    1  UNL1        0.0865
     12 S         138.8628  139.5277  168.1440 S.2     1  UNL1       -0.0488
     13 H         138.0151  139.8577  164.7233 H       1  UNL1        0.1442
     14 H         137.1342  138.9753  165.8864 H       1  UNL1        0.1442
     15 H         143.0451  141.1998  172.3136 H       1  UNL1        0.2923
     16 H         140.0547  139.2704  172.1575 H       1  UNL1        0.2923
     17 C         142.8559  142.4092  167.1775 C.2     1  UNL1        0.2477
     18 O         144.1690  143.0335  167.5461 O.2     1  UNL1       -0.2701
     19 N         142.3177  142.5612  165.7856 N.am    1  UNL1       -0.2969
     20 H         141.4559  142.1514  165.5436 H       1  UNL1        0.1501
     21 C         143.0927  143.3374  164.7624 C.3     1  UNL1        0.1166
     22 C         142.3989  143.8774  163.5471 C.ar    1  UNL1       -0.0017
     23 C         141.4072  144.9945  163.6838 C.ar    1  UNL1       -0.0017
     24 C         140.7135  145.5345  162.4685 C.ar    1  UNL1        0.0120
     25 C         141.0114  144.9574  161.1163 C.ar    1  UNL1        0.0682
     26 CL        140.3177  145.4974  159.9010 Cl      1  UNL1       -0.0814
     27 C         142.0031  143.8404  160.9796 C.ar    1  UNL1        0.0679
     28 CL        142.3011  143.2633  159.6275 Cl      1  UNL1       -0.0814
     29 C         142.6969  143.3004  162.1950 C.ar    1  UNL1        0.0096
@<TRIPOS>BOND
     1     1     2    1
     2     2     3   ar
     3     3     4   ar
     4     4     5   ar
     5     5    17    1
     6    17    18    2
     7    17    19   am
     8    19    21    1
     9    21    22    1
    10    22    23   ar
    11    23    24   ar
    12    24    25   ar
    13    25    26    1
    14    25    27   ar
    15    27    28    1
    16    27    29   ar
    17     5     6   ar
    18     6     7   ar
    19     7     8    1
    20     7     9   ar
    21     9    10    1
    22     9    11   ar
    23    11    12   ar
    24    12     2   ar
    25    11     4   ar
    26    29    22   ar
    27     1    13    1
    28     1    14    1
    29    19    20    1
    30     8    15    1
    31    10    16    1
@<TRIPOS>MOLECULE
*****
 29 31 0 0 0
SMALL
GASTEIGER

@<TRIPOS>ATOM
      1 N         136.9679  141.0575  163.2661 N.pl3   1  UNL1       -0.3375
      2 C         138.1173  141.8443  162.7096 C.ar    1  UNL1        0.1568
      3 N         139.3945  142.1669  163.4270 N.ar    1  UNL1       -0.2242
      4 C         140.2579  142.9687  162.4987 C.ar    1  UNL1        0.0967
      5 C         141.6251  143.5636  162.6623 C.ar    1  UNL1        0.0747
      6 C         142.2487  144.3315  161.5347 C.ar    1  UNL1        0.0458
      7 C         141.5052  144.5044  160.2435 C.ar    1  UNL1        0.1682
      8 O         142.1288  145.2723  159.1159 O.3     1  UNL1       -0.5029
      9 C         140.1379  143.9095  160.0799 C.ar    1  UNL1        0.1751
     10 O         139.3943  144.0824  158.7887 O.3     1  UNL1       -0.5025
     11 C         139.5143  143.1416  161.2075 C.ar    1  UNL1        0.0865
     12 S         138.1914  142.4467  161.3379 S.2     1  UNL1       -0.0488
     13 H         137.0133  140.7010  164.1827 H       1  UNL1        0.1442
     14 H         136.1680  140.8976  162.7149 H       1  UNL1        0.1442
     15 H         142.9828  145.6440  159.2181 H       1  UNL1        0.2923
     16 H         139.7839  144.5621  158.0844 H       1  UNL1        0.2923
     17 C         142.3687  143.3907  163.9535 C.2     1  UNL1        0.2477
     18 O         143.2844  144.4734  164.4425 O.2     1  UNL1       -0.2701
     19 N         142.1965  142.1349  164.7558 N.am    1  UNL1       -0.2969
     20 H         141.5955  141.4243  164.4348 H       1  UNL1        0.1501
     21 C         142.9401  141.9620  166.0470 C.3     1  UNL1        0.1166
     22 C         142.2233  141.4548  167.2631 C.ar    1  UNL1       -0.0017
     23 C         140.9614  142.1227  167.7230 C.ar    1  UNL1       -0.0017
     24 C         140.2447  141.6155  168.9391 C.ar    1  UNL1        0.0120
     25 C         140.7899  140.4403  169.6954 C.ar    1  UNL1        0.0682
     26 CL        140.0731  139.9331  170.9115 Cl      1  UNL1       -0.0814
     27 C         142.0518  139.7725  169.2355 C.ar    1  UNL1        0.0679
     28 CL        142.5970  138.5974  169.9917 Cl      1  UNL1       -0.0814
     29 C         142.7685  140.2797  168.0193 C.ar    1  UNL1        0.0096
@<TRIPOS>BOND
     1     1     2    1
     2     2     3   ar
     3     3     4   ar
     4     4     5   ar
     5     5    17    1
     6    17    18    2
     7    17    19   am
     8    19    21    1
     9    21    22    1
    10    22    23   ar
    11    23    24   ar
    12    24    25   ar
    13    25    26    1
    14    25    27   ar
    15    27    28    1
    16    27    29   ar
    17     5     6   ar
    18     6     7   ar
    19     7     8    1
    20     7     9   ar
    21     9    10    1
    22     9    11   ar
    23    11    12   ar
    24    12     2   ar
    25    11     4   ar
    26    29    22   ar
    27     1    13    1
    28     1    14    1
    29    19    20    1
    30     8    15    1
    31    10    16    1
