@<TRIPOS>MOLECULE
*****
 39 42 0 0 0
SMALL
GASTEIGER

@<TRIPOS>ATOM
      1 C         140.8727  138.6823  160.4360 C.3     1  UNL1        0.0118
      2 C         141.6527  138.0117  161.5276 C.3     1  UNL1        0.0179
      3 C         140.9555  137.5509  162.7732 C.3     1  UNL1        0.0724
      4 N         139.4783  137.7607  162.9271 N.3     1  UNL1       -0.2689
      5 C         138.6982  138.4313  161.8354 C.3     1  UNL1        0.0724
      6 C         139.3954  138.8921  160.5898 C.3     1  UNL1        0.0179
      7 C         141.5699  139.1432  159.1903 C.3     1  UNL1        0.0854
      8 O         144.1587  139.2982  159.0342 O.2     1  UNL1       -0.2749
      9 C         142.8315  139.9483  159.2911 C.2     1  UNL1        0.2259
     10 N         142.7659  141.4036  159.6489 N.am    1  UNL1       -0.2753
     11 C         144.0275  142.2087  159.7498 C.3     1  UNL1        0.0963
     12 C         144.5848  142.5640  161.0963 C.3     1  UNL1        0.0532
     13 C         144.5928  141.5452  162.1972 C.3     1  UNL1        0.1389
     14 O         144.9634  140.1225  161.8999 O.3     1  UNL1       -0.3819
     15 H         144.2937  139.7285  161.3191 H       1  UNL1        0.2104
     16 C         141.4387  142.0537  159.9058 C.3     1  UNL1        0.1201
     17 C         141.0989  142.5469  161.2810 C.ar    1  UNL1       -0.0022
     18 C         140.8615  144.0093  161.5158 C.ar    1  UNL1       -0.0003
     19 C         140.5216  144.5026  162.8911 C.ar    1  UNL1        0.0294
     20 C         140.4191  143.5335  164.0314 C.ar    1  UNL1        0.1401
     21 F         140.0793  144.0267  165.4066 F       1  UNL1       -0.2042
     22 C         140.6565  142.0711  163.7965 C.ar    1  UNL1        0.0294
     23 C         140.9964  141.5778  162.4213 C.ar    1  UNL1       -0.0003
     24 C         138.7810  137.2998  164.1727 C.3     1  UNL1        0.1007
     25 C         138.8798  138.1102  165.4310 C.ar    1  UNL1        0.0129
     26 C         137.8129  138.2494  166.4761 C.ar    1  UNL1        0.0176
     27 C         138.3365  139.1490  167.5562 C.ar    1  UNL1        0.0799
     28 N         139.7272  139.5657  167.1787 N.ar    1  UNL1       -0.3038
     29 C         140.0629  138.9237  165.8652 C.ar    1  UNL1        0.0772
     30 C         140.6245  140.4663  167.9748 C.ar    1  UNL1        0.0640
     31 C         141.7991  139.8940  168.7114 C.ar    1  UNL1        0.0175
     32 C         142.6964  140.7945  169.5075 C.ar    1  UNL1        0.0053
     33 C         142.4191  142.2674  169.5670 C.ar    1  UNL1        0.0715
     34 C         141.2445  142.8398  168.8303 C.ar    1  UNL1        0.0053
     35 C         140.3472  141.9392  168.0342 C.ar    1  UNL1        0.0175
     36 C         143.3164  143.1680  170.3631 C.3     1  UNL1        0.4186
     37 F         144.2138  144.0685  171.1592 F       1  UNL1       -0.1659
     38 F         142.1775  144.1226  170.5668 F       1  UNL1       -0.1659
     39 F         144.4554  142.2133  170.1594 F       1  UNL1       -0.1659
@<TRIPOS>BOND
     1     8     9    2
     2     9     7    1
     3     7     1    1
     4     1     2    1
     5     2     3    1
     6     3     4    1
     7     4    24    1
     8    24    25    1
     9    25    26   ar
    10    26    27   ar
    11    27    28   ar
    12    28    30    1
    13    30    31   ar
    14    31    32   ar
    15    32    33   ar
    16    33    36    1
    17    36    37    1
    18    36    38    1
    19    36    39    1
    20    33    34   ar
    21    34    35   ar
    22    28    29   ar
    23     4     5    1
    24     5     6    1
    25     9    10   am
    26    10    11    1
    27    11    12    1
    28    12    13    1
    29    13    14    1
    30    10    16    1
    31    16    17    1
    32    17    18   ar
    33    18    19   ar
    34    19    20   ar
    35    20    21    1
    36    20    22   ar
    37    22    23   ar
    38     6     1    1
    39    23    17   ar
    40    29    25   ar
    41    35    30   ar
    42    14    15    1
@<TRIPOS>MOLECULE
*****
 39 42 0 0 0
SMALL
GASTEIGER

@<TRIPOS>ATOM
      1 C         139.2117  140.8423  166.0358 C.3     1  UNL1        0.0118
      2 C         138.3455  140.7413  164.8154 C.3     1  UNL1        0.0179
      3 C         138.1382  141.9424  163.9413 C.3     1  UNL1        0.0724
      4 N         138.7972  143.2447  164.2876 N.3     1  UNL1       -0.2689
      5 C         139.6634  143.3458  165.5079 C.3     1  UNL1        0.0724
      6 C         139.8706  142.1446  166.3821 C.3     1  UNL1        0.0179
      7 C         139.4190  139.6411  166.9100 C.3     1  UNL1        0.0854
      8 O         139.3511  140.0544  169.4741 O.2     1  UNL1       -0.2749
      9 C         140.1315  139.7826  168.2223 C.2     1  UNL1        0.2259
     10 N         141.6247  139.6522  168.2829 N.am    1  UNL1       -0.2753
     11 C         142.3373  139.7936  169.5952 C.3     1  UNL1        0.0963
     12 C         142.5897  141.1566  170.1684 C.3     1  UNL1        0.0532
     13 C         141.7334  141.6697  171.2880 C.3     1  UNL1        0.1389
     14 O         140.7382  140.7619  171.9478 O.3     1  UNL1       -0.3819
     15 H         140.0467  140.5230  171.3110 H       1  UNL1        0.2104
     16 C         142.4052  139.3804  167.0311 C.3     1  UNL1        0.1201
     17 C         142.7944  140.5138  166.1290 C.ar    1  UNL1       -0.0022
     18 C         143.3293  141.7876  166.7131 C.ar    1  UNL1       -0.0003
     19 C         143.7186  142.9210  165.8110 C.ar    1  UNL1        0.0294
     20 C         143.5729  142.7806  164.3247 C.ar    1  UNL1        0.1401
     21 F         143.9621  143.9140  163.4226 F       1  UNL1       -0.2042
     22 C         143.0380  141.5068  163.7405 C.ar    1  UNL1        0.0294
     23 C         142.6487  140.3734  164.6427 C.ar    1  UNL1       -0.0003
     24 C         138.5899  144.4459  163.4133 C.3     1  UNL1        0.1007
     25 C         139.5015  144.6916  162.2478 C.ar    1  UNL1        0.0129
     26 C         139.5809  145.9538  161.4413 C.ar    1  UNL1        0.0176
     27 C         140.6223  145.7605  160.3792 C.ar    1  UNL1        0.0799
     28 N         141.1866  144.3787  160.5292 N.ar    1  UNL1       -0.3038
     29 C         140.4939  143.7181  161.6841 C.ar    1  UNL1        0.0772
     30 C         142.2557  143.7653  159.6745 C.ar    1  UNL1        0.0640
     31 C         142.1725  143.8682  158.1804 C.ar    1  UNL1        0.0175
     32 C         143.2417  143.2548  157.3257 C.ar    1  UNL1        0.0053
     33 C         144.3941  142.5386  157.9650 C.ar    1  UNL1        0.0715
     34 C         144.4774  142.4357  159.4592 C.ar    1  UNL1        0.0053
     35 C         143.4082  143.0491  160.3139 C.ar    1  UNL1        0.0175
     36 C         145.4633  141.9252  157.1103 C.3     1  UNL1        0.4186
     37 F         146.5324  141.3117  156.2555 F       1  UNL1       -0.1659
     38 F         146.5015  142.7374  157.8261 F       1  UNL1       -0.1659
     39 F         144.4250  141.1129  156.3944 F       1  UNL1       -0.1659
@<TRIPOS>BOND
     1     8     9    2
     2     9     7    1
     3     7     1    1
     4     1     2    1
     5     2     3    1
     6     3     4    1
     7     4    24    1
     8    24    25    1
     9    25    26   ar
    10    26    27   ar
    11    27    28   ar
    12    28    30    1
    13    30    31   ar
    14    31    32   ar
    15    32    33   ar
    16    33    36    1
    17    36    37    1
    18    36    38    1
    19    36    39    1
    20    33    34   ar
    21    34    35   ar
    22    28    29   ar
    23     4     5    1
    24     5     6    1
    25     9    10   am
    26    10    11    1
    27    11    12    1
    28    12    13    1
    29    13    14    1
    30    10    16    1
    31    16    17    1
    32    17    18   ar
    33    18    19   ar
    34    19    20   ar
    35    20    21    1
    36    20    22   ar
    37    22    23   ar
    38     6     1    1
    39    23    17   ar
    40    29    25   ar
    41    35    30   ar
    42    14    15    1
@<TRIPOS>MOLECULE
*****
 39 42 0 0 0
SMALL
GASTEIGER

@<TRIPOS>ATOM
      1 C         142.8827  139.2241  159.5974 C.3     1  UNL1        0.0118
      2 C         141.3860  139.1273  159.5765 C.3     1  UNL1        0.0179
      3 C         140.6617  138.4619  160.7090 C.3     1  UNL1        0.0724
      4 N         141.4340  137.8934  161.8624 N.3     1  UNL1       -0.2689
      5 C         142.9307  137.9902  161.8832 C.3     1  UNL1        0.0724
      6 C         143.6551  138.6555  160.7507 C.3     1  UNL1        0.0179
      7 C         143.6071  139.8895  158.4648 C.3     1  UNL1        0.0854
      8 O         142.3676  141.2956  156.6658 O.2     1  UNL1       -0.2749
      9 C         143.1369  141.2180  157.9512 C.2     1  UNL1        0.2259
     10 N         143.4359  142.4690  158.7230 N.am    1  UNL1       -0.2753
     11 C         142.9657  143.7976  158.2094 C.3     1  UNL1        0.0963
     12 C         141.5043  144.1348  158.2294 C.3     1  UNL1        0.0532
     13 C         140.9570  145.0361  159.2963 C.3     1  UNL1        0.1389
     14 O         141.8613  145.5593  160.3726 O.3     1  UNL1       -0.3819
     15 H         142.1676  144.8225  160.9241 H       1  UNL1        0.2104
     16 C         144.2052  142.3914  160.0084 C.3     1  UNL1        0.1201
     17 C         143.5395  142.7503  161.3037 C.ar    1  UNL1       -0.0022
     18 C         144.2166  143.6857  162.2610 C.ar    1  UNL1       -0.0003
     19 C         143.5509  144.0446  163.5564 C.ar    1  UNL1        0.0294
     20 C         142.2080  143.4681  163.8945 C.ar    1  UNL1        0.1401
     21 F         141.5423  143.8270  165.1898 F       1  UNL1       -0.2042
     22 C         141.5308  142.5327  162.9371 C.ar    1  UNL1        0.0294
     23 C         142.1966  142.1738  161.6418 C.ar    1  UNL1       -0.0003
     24 C         140.7096  137.2280  162.9949 C.3     1  UNL1        0.1007
     25 C         140.4245  137.9912  164.2543 C.ar    1  UNL1        0.0129
     26 C         139.1216  138.0112  164.9972 C.ar    1  UNL1        0.0176
     27 C         139.2840  138.9008  166.1940 C.ar    1  UNL1        0.0799
     28 N         140.6874  139.4307  166.1907 N.ar    1  UNL1       -0.3038
     29 C         141.3922  138.8685  164.9919 C.ar    1  UNL1        0.0772
     30 C         141.2815  140.3595  167.2076 C.ar    1  UNL1        0.0640
     31 C         140.6555  140.4852  168.5649 C.ar    1  UNL1        0.0175
     32 C         141.2496  141.4141  169.5818 C.ar    1  UNL1        0.0053
     33 C         142.4697  142.2173  169.2415 C.ar    1  UNL1        0.0715
     34 C         143.0958  142.0917  167.8842 C.ar    1  UNL1        0.0053
     35 C         142.5017  141.1628  166.8673 C.ar    1  UNL1        0.0175
     36 C         143.0639  143.1462  170.2584 C.3     1  UNL1        0.4186
     37 F         143.6581  144.0750  171.2753 F       1  UNL1       -0.1659
     38 F         141.7538  143.8690  170.3635 F       1  UNL1       -0.1659
     39 F         144.3741  142.4233  170.1533 F       1  UNL1       -0.1659
@<TRIPOS>BOND
     1     8     9    2
     2     9     7    1
     3     7     1    1
     4     1     2    1
     5     2     3    1
     6     3     4    1
     7     4    24    1
     8    24    25    1
     9    25    26   ar
    10    26    27   ar
    11    27    28   ar
    12    28    30    1
    13    30    31   ar
    14    31    32   ar
    15    32    33   ar
    16    33    36    1
    17    36    37    1
    18    36    38    1
    19    36    39    1
    20    33    34   ar
    21    34    35   ar
    22    28    29   ar
    23     4     5    1
    24     5     6    1
    25     9    10   am
    26    10    11    1
    27    11    12    1
    28    12    13    1
    29    13    14    1
    30    10    16    1
    31    16    17    1
    32    17    18   ar
    33    18    19   ar
    34    19    20   ar
    35    20    21    1
    36    20    22   ar
    37    22    23   ar
    38     6     1    1
    39    23    17   ar
    40    29    25   ar
    41    35    30   ar
    42    14    15    1
@<TRIPOS>MOLECULE
*****
 39 42 0 0 0
SMALL
GASTEIGER

@<TRIPOS>ATOM
      1 C         138.9972  139.7909  159.8903 C.3     1  UNL1        0.0118
      2 C         137.7205  139.6132  160.6572 C.3     1  UNL1        0.0179
      3 C         137.7154  138.8240  161.9328 C.3     1  UNL1        0.0724
      4 N         138.9872  138.2125  162.4414 N.3     1  UNL1       -0.2689
      5 C         140.2640  138.3901  161.6744 C.3     1  UNL1        0.0724
      6 C         140.2690  139.1793  160.3989 C.3     1  UNL1        0.0179
      7 C         139.0023  140.5801  158.6146 C.3     1  UNL1        0.0854
      8 O         140.9592  141.8413  157.4615 O.2     1  UNL1       -0.2749
      9 C         139.8682  141.7986  158.4900 C.2     1  UNL1        0.2259
     10 N         139.6429  142.9743  159.3938 N.am    1  UNL1       -0.2753
     11 C         140.5088  144.1928  159.2692 C.3     1  UNL1        0.0963
     12 C         140.1678  145.2558  158.2674 C.3     1  UNL1        0.0532
     13 C         141.2285  145.7917  157.3520 C.3     1  UNL1        0.1389
     14 O         140.9005  146.8921  156.3870 O.3     1  UNL1       -0.3819
     15 H         140.2671  146.5665  155.7284 H       1  UNL1        0.2104
     16 C         138.5519  142.9316  160.4223 C.3     1  UNL1        0.1201
     17 C         138.8906  143.0353  161.8798 C.ar    1  UNL1       -0.0022
     18 C         140.0314  142.2409  162.4430 C.ar    1  UNL1       -0.0003
     19 C         140.3702  142.3446  163.9007 C.ar    1  UNL1        0.0294
     20 C         139.5681  143.2428  164.7950 C.ar    1  UNL1        0.1401
     21 F         139.9068  143.3466  166.2525 F       1  UNL1       -0.2042
     22 C         138.4272  144.0373  164.2317 C.ar    1  UNL1        0.0294
     23 C         138.0884  143.9335  162.7741 C.ar    1  UNL1       -0.0003
     24 C         138.9821  137.4232  163.7170 C.3     1  UNL1        0.1007
     25 C         139.0168  138.1328  165.0381 C.ar    1  UNL1        0.0129
     26 C         137.9620  138.0663  166.1025 C.ar    1  UNL1        0.0176
     27 C         138.4056  138.9258  167.2490 C.ar    1  UNL1        0.0799
     28 N         139.7346  139.5236  166.8931 N.ar    1  UNL1       -0.3038
     29 C         140.1123  139.0334  165.5267 C.ar    1  UNL1        0.0772
     30 C         140.5438  140.4489  167.7527 C.ar    1  UNL1        0.0640
     31 C         139.9393  141.0442  168.9897 C.ar    1  UNL1        0.0175
     32 C         140.7484  141.9696  169.8493 C.ar    1  UNL1        0.0053
     33 C         142.1621  142.2997  169.4719 C.ar    1  UNL1        0.0715
     34 C         142.7666  141.7044  168.2349 C.ar    1  UNL1        0.0053
     35 C         141.9575  140.7791  167.3753 C.ar    1  UNL1        0.0175
     36 C         142.9712  143.2250  170.3315 C.3     1  UNL1        0.4186
     37 F         143.7803  144.1505  171.1912 F       1  UNL1       -0.1659
     38 F         144.1469  142.3002  170.2205 F       1  UNL1       -0.1659
     39 F         141.7955  144.1500  170.4426 F       1  UNL1       -0.1659
@<TRIPOS>BOND
     1     8     9    2
     2     9     7    1
     3     7     1    1
     4     1     2    1
     5     2     3    1
     6     3     4    1
     7     4    24    1
     8    24    25    1
     9    25    26   ar
    10    26    27   ar
    11    27    28   ar
    12    28    30    1
    13    30    31   ar
    14    31    32   ar
    15    32    33   ar
    16    33    36    1
    17    36    37    1
    18    36    38    1
    19    36    39    1
    20    33    34   ar
    21    34    35   ar
    22    28    29   ar
    23     4     5    1
    24     5     6    1
    25     9    10   am
    26    10    11    1
    27    11    12    1
    28    12    13    1
    29    13    14    1
    30    10    16    1
    31    16    17    1
    32    17    18   ar
    33    18    19   ar
    34    19    20   ar
    35    20    21    1
    36    20    22   ar
    37    22    23   ar
    38     6     1    1
    39    23    17   ar
    40    29    25   ar
    41    35    30   ar
    42    14    15    1
@<TRIPOS>MOLECULE
*****
 39 42 0 0 0
SMALL
GASTEIGER

@<TRIPOS>ATOM
      1 C         143.8193  139.2343  162.4129 C.3     1  UNL1        0.0118
      2 C         142.8856  138.0814  162.1917 C.3     1  UNL1        0.0179
      3 C         142.3342  137.8150  160.8224 C.3     1  UNL1        0.0724
      4 N         142.7166  138.7014  159.6744 N.3     1  UNL1       -0.2689
      5 C         143.6504  139.8543  159.8956 C.3     1  UNL1        0.0724
      6 C         144.2018  140.1207  161.2649 C.3     1  UNL1        0.0179
      7 C         144.3707  139.5007  163.7823 C.3     1  UNL1        0.0854
      8 O         146.0626  141.4641  163.9629 O.2     1  UNL1       -0.2749
      9 C         144.6914  140.9048  164.2015 C.2     1  UNL1        0.2259
     10 N         143.6408  141.7495  164.8595 N.am    1  UNL1       -0.2753
     11 C         143.9615  143.1535  165.2787 C.3     1  UNL1        0.0963
     12 C         143.8385  144.2772  164.2928 C.3     1  UNL1        0.0532
     13 C         143.7379  143.9803  162.8258 C.3     1  UNL1        0.1389
     14 O         144.9665  143.6079  162.0501 O.3     1  UNL1       -0.3819
     15 H         145.5725  144.3647  162.0213 H       1  UNL1        0.2104
     16 C         142.2697  141.1901  165.0981 C.3     1  UNL1        0.1201
     17 C         141.8624  140.7660  166.4780 C.ar    1  UNL1       -0.0022
     18 C         140.5406  141.2022  167.0372 C.ar    1  UNL1       -0.0003
     19 C         140.1333  140.7780  168.4171 C.ar    1  UNL1        0.0294
     20 C         141.0478  139.9178  169.2379 C.ar    1  UNL1        0.1401
     21 F         140.6405  139.4937  170.6178 F       1  UNL1       -0.2042
     22 C         142.3696  139.4817  168.6787 C.ar    1  UNL1        0.0294
     23 C         142.7769  139.9058  167.2988 C.ar    1  UNL1       -0.0003
     24 C         142.1652  138.4350  158.3050 C.3     1  UNL1        0.1007
     25 C         142.7987  137.3935  157.4310 C.ar    1  UNL1        0.0129
     26 C         143.4594  137.6371  156.1066 C.ar    1  UNL1        0.0176
     27 C         143.9518  136.3198  155.5849 C.ar    1  UNL1        0.0799
     28 N         143.5955  135.2619  156.5870 N.ar    1  UNL1       -0.3038
     29 C         142.8829  135.9256  157.7280 C.ar    1  UNL1        0.0772
     30 C         143.8986  133.7976  156.4689 C.ar    1  UNL1        0.0640
     31 C         144.5759  133.0785  157.5976 C.ar    1  UNL1        0.0175
     32 C         144.8790  131.6142  157.4795 C.ar    1  UNL1        0.0053
     33 C         144.5048  130.8691  156.2327 C.ar    1  UNL1        0.0715
     34 C         143.8275  131.5882  155.1039 C.ar    1  UNL1        0.0053
     35 C         143.5244  133.0525  155.2220 C.ar    1  UNL1        0.0175
     36 C         144.8079  129.4048  156.1146 C.3     1  UNL1        0.4186
     37 F         145.1110  127.9405  155.9965 F       1  UNL1       -0.1659
     38 F         145.0424  129.5721  154.6425 F       1  UNL1       -0.1659
     39 F         144.5734  129.2375  157.5867 F       1  UNL1       -0.1659
@<TRIPOS>BOND
     1     8     9    2
     2     9     7    1
     3     7     1    1
     4     1     2    1
     5     2     3    1
     6     3     4    1
     7     4    24    1
     8    24    25    1
     9    25    26   ar
    10    26    27   ar
    11    27    28   ar
    12    28    30    1
    13    30    31   ar
    14    31    32   ar
    15    32    33   ar
    16    33    36    1
    17    36    37    1
    18    36    38    1
    19    36    39    1
    20    33    34   ar
    21    34    35   ar
    22    28    29   ar
    23     4     5    1
    24     5     6    1
    25     9    10   am
    26    10    11    1
    27    11    12    1
    28    12    13    1
    29    13    14    1
    30    10    16    1
    31    16    17    1
    32    17    18   ar
    33    18    19   ar
    34    19    20   ar
    35    20    21    1
    36    20    22   ar
    37    22    23   ar
    38     6     1    1
    39    23    17   ar
    40    29    25   ar
    41    35    30   ar
    42    14    15    1
@<TRIPOS>MOLECULE
*****
 39 42 0 0 0
SMALL
GASTEIGER

@<TRIPOS>ATOM
      1 C         142.9961  141.4504  157.8903 C.3     1  UNL1        0.0118
      2 C         144.0891  141.2400  158.8957 C.3     1  UNL1        0.0179
      3 C         144.1383  142.0807  160.1370 C.3     1  UNL1        0.0724
      4 N         143.0944  143.1317  160.3729 N.3     1  UNL1       -0.2689
      5 C         142.0014  143.3421  159.3674 C.3     1  UNL1        0.0724
      6 C         141.9522  142.5015  158.1261 C.3     1  UNL1        0.0179
      7 C         142.9469  140.6098  156.6489 C.3     1  UNL1        0.0854
      8 O         144.5284  138.6493  156.0123 O.2     1  UNL1       -0.2749
      9 C         143.3027  139.1541  156.7143 C.2     1  UNL1        0.2259
     10 N         142.4328  138.2031  157.4818 N.am    1  UNL1       -0.2753
     11 C         142.7886  136.7474  157.5472 C.3     1  UNL1        0.0963
     12 C         142.4885  135.8491  156.3841 C.3     1  UNL1        0.0532
     13 C         143.6113  135.2361  155.6006 C.3     1  UNL1        0.1389
     14 O         144.6875  136.1080  155.0249 O.3     1  UNL1       -0.3819
     15 H         144.3075  136.6823  154.3418 H       1  UNL1        0.2104
     16 C         141.2071  138.7079  158.1838 C.3     1  UNL1        0.1201
     17 C         141.0183  138.4420  159.6479 C.ar    1  UNL1       -0.0022
     18 C         139.6353  138.3537  160.2218 C.ar    1  UNL1       -0.0003
     19 C         139.4464  138.0878  161.6860 C.ar    1  UNL1        0.0294
     20 C         140.6406  137.9103  162.5762 C.ar    1  UNL1        0.1401
     21 F         140.4519  137.6445  164.0403 F       1  UNL1       -0.2042
     22 C         142.0237  137.9987  162.0021 C.ar    1  UNL1        0.0294
     23 C         142.2125  138.2646  160.5380 C.ar    1  UNL1       -0.0003
     24 C         143.1436  143.9724  161.6143 C.3     1  UNL1        0.1007
     25 C         142.2517  143.6477  162.7757 C.ar    1  UNL1        0.0129
     26 C         141.8074  144.6058  163.8409 C.ar    1  UNL1        0.0176
     27 C         140.9286  143.8582  164.7995 C.ar    1  UNL1        0.0799
     28 N         140.8297  142.4380  164.3267 N.ar    1  UNL1       -0.3038
     29 C         141.6475  142.3080  163.0759 C.ar    1  UNL1        0.0772
     30 C         140.0501  141.3407  164.9884 C.ar    1  UNL1        0.0640
     31 C         140.4918  140.8029  166.3171 C.ar    1  UNL1        0.0175
     32 C         139.7122  139.7056  166.9789 C.ar    1  UNL1        0.0053
     33 C         138.4908  139.1460  166.3120 C.ar    1  UNL1        0.0715
     34 C         138.0489  139.6838  164.9832 C.ar    1  UNL1        0.0053
     35 C         138.8286  140.7811  164.3215 C.ar    1  UNL1        0.0175
     36 C         137.7111  138.0487  166.9737 C.3     1  UNL1        0.4186
     37 F         136.9315  136.9513  167.6354 F       1  UNL1       -0.1659
     38 F         137.3720  138.9724  168.1058 F       1  UNL1       -0.1659
     39 F         138.0502  137.1249  165.8415 F       1  UNL1       -0.1659
@<TRIPOS>BOND
     1     8     9    2
     2     9     7    1
     3     7     1    1
     4     1     2    1
     5     2     3    1
     6     3     4    1
     7     4    24    1
     8    24    25    1
     9    25    26   ar
    10    26    27   ar
    11    27    28   ar
    12    28    30    1
    13    30    31   ar
    14    31    32   ar
    15    32    33   ar
    16    33    36    1
    17    36    37    1
    18    36    38    1
    19    36    39    1
    20    33    34   ar
    21    34    35   ar
    22    28    29   ar
    23     4     5    1
    24     5     6    1
    25     9    10   am
    26    10    11    1
    27    11    12    1
    28    12    13    1
    29    13    14    1
    30    10    16    1
    31    16    17    1
    32    17    18   ar
    33    18    19   ar
    34    19    20   ar
    35    20    21    1
    36    20    22   ar
    37    22    23   ar
    38     6     1    1
    39    23    17   ar
    40    29    25   ar
    41    35    30   ar
    42    14    15    1
@<TRIPOS>MOLECULE
*****
 39 42 0 0 0
SMALL
GASTEIGER

@<TRIPOS>ATOM
      1 C         140.7786  138.5430  163.4153 C.3     1  UNL1        0.0118
      2 C         140.5321  139.8831  162.7882 C.3     1  UNL1        0.0179
      3 C         141.3496  140.3212  161.6094 C.3     1  UNL1        0.0724
      4 N         142.4136  139.4192  161.0577 N.3     1  UNL1       -0.2689
      5 C         142.6601  138.0791  161.6848 C.3     1  UNL1        0.0724
      6 C         141.8426  137.6410  162.8636 C.3     1  UNL1        0.0179
      7 C         139.9611  138.1048  164.5942 C.3     1  UNL1        0.0854
      8 O         138.1022  139.5934  165.6327 O.2     1  UNL1       -0.2749
      9 C         139.5220  139.1097  165.6176 C.2     1  UNL1        0.2259
     10 N         140.5027  139.6309  166.6259 N.am    1  UNL1       -0.2753
     11 C         140.0636  140.6358  167.6492 C.3     1  UNL1        0.0963
     12 C         139.5102  140.1739  168.9647 C.3     1  UNL1        0.0532
     13 C         140.4242  139.9899  170.1398 C.3     1  UNL1        0.1389
     14 O         139.8720  139.5212  171.4533 O.3     1  UNL1       -0.3819
     15 H         139.2778  140.1977  171.8141 H       1  UNL1        0.2104
     16 C         141.9224  139.1472  166.6108 C.3     1  UNL1        0.1201
     17 C         142.9401  139.8352  165.7500 C.ar    1  UNL1       -0.0022
     18 C         144.1000  139.0619  165.1964 C.ar    1  UNL1       -0.0003
     19 C         145.1178  139.7499  164.3356 C.ar    1  UNL1        0.0294
     20 C         144.9755  141.2112  164.0285 C.ar    1  UNL1        0.1401
     21 F         145.9932  141.8993  163.1677 F       1  UNL1       -0.2042
     22 C         143.8155  141.9845  164.5822 C.ar    1  UNL1        0.0294
     23 C         142.7978  141.2965  165.4429 C.ar    1  UNL1       -0.0003
     24 C         143.2312  139.8574  159.8788 C.3     1  UNL1        0.1007
     25 C         143.1477  139.1018  158.5858 C.ar    1  UNL1        0.0129
     26 C         143.2928  139.6864  157.2120 C.ar    1  UNL1        0.0176
     27 C         143.1393  138.5748  156.2166 C.ar    1  UNL1        0.0799
     28 N         142.8993  137.3032  156.9752 N.ar    1  UNL1       -0.3038
     29 C         142.9045  137.6289  158.4394 C.ar    1  UNL1        0.0772
     30 C         142.6907  135.9444  156.3749 C.ar    1  UNL1        0.0640
     31 C         141.4632  135.6652  155.5594 C.ar    1  UNL1        0.0175
     32 C         141.2546  134.3065  154.9592 C.ar    1  UNL1        0.0053
     33 C         142.2735  133.2270  155.1744 C.ar    1  UNL1        0.0715
     34 C         143.5010  133.5062  155.9900 C.ar    1  UNL1        0.0053
     35 C         143.7096  134.8649  156.5902 C.ar    1  UNL1        0.0175
     36 C         142.0649  131.8683  154.5742 C.3     1  UNL1        0.4186
     37 F         141.8563  130.5095  153.9738 F       1  UNL1       -0.1659
     38 F         140.7747  131.7336  155.3273 F       1  UNL1       -0.1659
     39 F         143.3551  132.0029  153.8209 F       1  UNL1       -0.1659
@<TRIPOS>BOND
     1     8     9    2
     2     9     7    1
     3     7     1    1
     4     1     2    1
     5     2     3    1
     6     3     4    1
     7     4    24    1
     8    24    25    1
     9    25    26   ar
    10    26    27   ar
    11    27    28   ar
    12    28    30    1
    13    30    31   ar
    14    31    32   ar
    15    32    33   ar
    16    33    36    1
    17    36    37    1
    18    36    38    1
    19    36    39    1
    20    33    34   ar
    21    34    35   ar
    22    28    29   ar
    23     4     5    1
    24     5     6    1
    25     9    10   am
    26    10    11    1
    27    11    12    1
    28    12    13    1
    29    13    14    1
    30    10    16    1
    31    16    17    1
    32    17    18   ar
    33    18    19   ar
    34    19    20   ar
    35    20    21    1
    36    20    22   ar
    37    22    23   ar
    38     6     1    1
    39    23    17   ar
    40    29    25   ar
    41    35    30   ar
    42    14    15    1
@<TRIPOS>MOLECULE
*****
 39 42 0 0 0
SMALL
GASTEIGER

@<TRIPOS>ATOM
      1 C         139.9992  138.4545  161.2376 C.3     1  UNL1        0.0118
      2 C         139.4081  138.5180  159.8605 C.3     1  UNL1        0.0179
      3 C         140.3043  138.4975  158.6579 C.3     1  UNL1        0.0724
      4 N         141.7918  138.4135  158.8325 N.3     1  UNL1       -0.2689
      5 C         142.3829  138.3500  160.2096 C.3     1  UNL1        0.0724
      6 C         141.4867  138.3705  161.4121 C.3     1  UNL1        0.0179
      7 C         139.1029  138.4749  162.4403 C.3     1  UNL1        0.0854
      8 O         137.4671  140.4100  161.8664 O.2     1  UNL1       -0.2749
      9 C         138.4012  139.7417  162.8312 C.2     1  UNL1        0.2259
     10 N         138.6335  140.3402  164.1869 N.am    1  UNL1       -0.2753
     11 C         137.9318  141.6069  164.5778 C.3     1  UNL1        0.0963
     12 C         138.4644  142.9318  164.1184 C.3     1  UNL1        0.0532
     13 C         137.6788  143.7591  163.1445 C.3     1  UNL1        0.1389
     14 O         137.5391  143.3097  161.7203 O.3     1  UNL1       -0.3819
     15 H         138.4072  143.3309  161.2879 H       1  UNL1        0.2104
     16 C         139.5676  139.6718  165.1517 C.3     1  UNL1        0.1201
     17 C         141.0491  139.7319  164.9249 C.ar    1  UNL1       -0.0022
     18 C         141.6830  141.0025  164.4416 C.ar    1  UNL1       -0.0003
     19 C         143.1646  141.0626  164.2148 C.ar    1  UNL1        0.0294
     20 C         144.0122  139.8519  164.4713 C.ar    1  UNL1        0.1401
     21 F         145.4938  139.9119  164.2445 F       1  UNL1       -0.2042
     22 C         143.3783  138.5812  164.9546 C.ar    1  UNL1        0.0294
     23 C         141.8968  138.5212  165.1814 C.ar    1  UNL1       -0.0003
     24 C         142.6881  138.3930  157.6298 C.3     1  UNL1        0.1007
     25 C         143.0707  137.0857  157.0018 C.ar    1  UNL1        0.0129
     26 C         143.4968  136.8828  155.5780 C.ar    1  UNL1        0.0176
     27 C         143.7839  135.4235  155.3835 C.ar    1  UNL1        0.0799
     28 N         143.5352  134.7244  156.6872 N.ar    1  UNL1       -0.3038
     29 C         143.0944  135.7517  157.6873 C.ar    1  UNL1        0.0772
     30 C         143.6986  133.2558  156.9453 C.ar    1  UNL1        0.0640
     31 C         144.8351  132.7651  157.7923 C.ar    1  UNL1        0.0175
     32 C         144.9985  131.2966  158.0505 C.ar    1  UNL1        0.0053
     33 C         144.0254  130.3188  157.4616 C.ar    1  UNL1        0.0715
     34 C         142.8889  130.8094  156.6145 C.ar    1  UNL1        0.0053
     35 C         142.7255  132.2780  156.3564 C.ar    1  UNL1        0.0175
     36 C         144.1888  128.8502  157.7197 C.3     1  UNL1        0.4186
     37 F         144.3523  127.3816  157.9778 F       1  UNL1       -0.1659
     38 F         143.3266  128.9690  158.9414 F       1  UNL1       -0.1659
     39 F         145.0511  128.7314  156.4980 F       1  UNL1       -0.1659
@<TRIPOS>BOND
     1     8     9    2
     2     9     7    1
     3     7     1    1
     4     1     2    1
     5     2     3    1
     6     3     4    1
     7     4    24    1
     8    24    25    1
     9    25    26   ar
    10    26    27   ar
    11    27    28   ar
    12    28    30    1
    13    30    31   ar
    14    31    32   ar
    15    32    33   ar
    16    33    36    1
    17    36    37    1
    18    36    38    1
    19    36    39    1
    20    33    34   ar
    21    34    35   ar
    22    28    29   ar
    23     4     5    1
    24     5     6    1
    25     9    10   am
    26    10    11    1
    27    11    12    1
    28    12    13    1
    29    13    14    1
    30    10    16    1
    31    16    17    1
    32    17    18   ar
    33    18    19   ar
    34    19    20   ar
    35    20    21    1
    36    20    22   ar
    37    22    23   ar
    38     6     1    1
    39    23    17   ar
    40    29    25   ar
    41    35    30   ar
    42    14    15    1
@<TRIPOS>MOLECULE
*****
 39 42 0 0 0
SMALL
GASTEIGER

@<TRIPOS>ATOM
      1 C         139.1276  139.7292  166.1582 C.3     1  UNL1        0.0118
      2 C         139.2292  138.3924  165.4854 C.3     1  UNL1        0.0179
      3 C         138.8803  138.2554  164.0330 C.3     1  UNL1        0.0724
      4 N         138.4298  139.4551  163.2535 N.3     1  UNL1       -0.2689
      5 C         138.3283  140.7919  163.9263 C.3     1  UNL1        0.0724
      6 C         138.6772  140.9289  165.3787 C.3     1  UNL1        0.0179
      7 C         139.4765  139.8662  167.6107 C.3     1  UNL1        0.0854
      8 O         139.9137  142.1042  168.8557 O.2     1  UNL1       -0.2749
      9 C         140.4227  140.9413  168.0565 C.2     1  UNL1        0.2259
     10 N         141.8779  140.8536  167.7032 N.am    1  UNL1       -0.2753
     11 C         142.8241  141.9287  168.1490 C.3     1  UNL1        0.0963
     12 C         143.3733  141.9129  169.5447 C.3     1  UNL1        0.0532
     13 C         142.8832  142.9077  170.5549 C.3     1  UNL1        0.1389
     14 O         142.2220  142.4334  171.8149 O.3     1  UNL1       -0.3819
     15 H         141.3834  141.9980  171.5958 H       1  UNL1        0.2104
     16 C         142.3868  139.6907  166.9040 C.3     1  UNL1        0.1201
     17 C         142.9321  139.9103  165.5241 C.ar    1  UNL1       -0.0022
     18 C         142.2198  140.8259  164.5731 C.ar    1  UNL1       -0.0003
     19 C         142.7651  141.0455  163.1931 C.ar    1  UNL1        0.0294
     20 C         144.0226  140.3494  162.7640 C.ar    1  UNL1        0.1401
     21 F         144.5679  140.5690  161.3840 F       1  UNL1       -0.2042
     22 C         144.7349  139.4338  163.7150 C.ar    1  UNL1        0.0294
     23 C         144.1896  139.2142  165.0950 C.ar    1  UNL1       -0.0003
     24 C         138.0809  139.3181  161.8010 C.3     1  UNL1        0.1007
     25 C         138.8219  140.1203  160.7727 C.ar    1  UNL1        0.0129
     26 C         138.2114  141.0826  159.7975 C.ar    1  UNL1        0.0176
     27 C         139.3156  141.6581  158.9612 C.ar    1  UNL1        0.0799
     28 N         140.6087  141.0515  159.4196 N.ar    1  UNL1       -0.3038
     29 C         140.3035  140.1011  160.5392 C.ar    1  UNL1        0.0772
     30 C         141.9681  141.3440  158.8572 C.ar    1  UNL1        0.0640
     31 C         142.4173  142.7643  158.6814 C.ar    1  UNL1        0.0175
     32 C         143.7768  143.0568  158.1189 C.ar    1  UNL1        0.0053
     33 C         144.6870  141.9290  157.7323 C.ar    1  UNL1        0.0715
     34 C         144.2378  140.5087  157.9081 C.ar    1  UNL1        0.0053
     35 C         142.8784  140.2162  158.4706 C.ar    1  UNL1        0.0175
     36 C         146.0464  142.2215  157.1699 C.3     1  UNL1        0.4186
     37 F         147.4059  142.5139  156.6074 F       1  UNL1       -0.1659
     38 F         146.3980  142.9811  158.4147 F       1  UNL1       -0.1659
     39 F         145.6949  141.4619  155.9251 F       1  UNL1       -0.1659
@<TRIPOS>BOND
     1     8     9    2
     2     9     7    1
     3     7     1    1
     4     1     2    1
     5     2     3    1
     6     3     4    1
     7     4    24    1
     8    24    25    1
     9    25    26   ar
    10    26    27   ar
    11    27    28   ar
    12    28    30    1
    13    30    31   ar
    14    31    32   ar
    15    32    33   ar
    16    33    36    1
    17    36    37    1
    18    36    38    1
    19    36    39    1
    20    33    34   ar
    21    34    35   ar
    22    28    29   ar
    23     4     5    1
    24     5     6    1
    25     9    10   am
    26    10    11    1
    27    11    12    1
    28    12    13    1
    29    13    14    1
    30    10    16    1
    31    16    17    1
    32    17    18   ar
    33    18    19   ar
    34    19    20   ar
    35    20    21    1
    36    20    22   ar
    37    22    23   ar
    38     6     1    1
    39    23    17   ar
    40    29    25   ar
    41    35    30   ar
    42    14    15    1
