@<TRIPOS>MOLECULE
*****
 36 39 0 0 0
SMALL
GASTEIGER

@<TRIPOS>ATOM
      1 O         143.5019  138.8370  163.7941 O.3     1  UNL1       -0.4741
      2 C         143.1430  140.1361  163.1358 C.ar    1  UNL1        0.1513
      3 C         141.9802  140.2018  162.1905 C.ar    1  UNL1        0.0688
      4 C         141.6213  141.5011  161.5322 C.ar    1  UNL1        0.1620
      5 F         140.4585  141.5668  160.5870 F       1  UNL1       -0.2026
      6 C         142.4252  142.7344  161.8192 C.ar    1  UNL1        0.1535
      7 C         143.5880  142.6687  162.7644 C.ar    1  UNL1        0.0369
      8 C         143.9470  141.3696  163.4227 C.ar    1  UNL1        0.0930
      9 CL        145.1098  141.3039  164.3680 Cl      1  UNL1       -0.0790
     10 S         142.0663  144.0336  161.1609 S.O2    1  UNL1        0.0769
     11 O         143.1076  143.7885  160.1095 O.2     1  UNL1       -0.1498
     12 O         141.0250  144.2787  162.2123 O.2     1  UNL1       -0.1498
     13 N         141.7074  145.3328  160.5025 N.pl3   1  UNL1       -0.1984
     14 H         141.6811  146.1622  161.0321 H       1  UNL1        0.1753
     15 C         141.3887  145.3681  159.0372 C.ar    1  UNL1        0.1542
     16 C         140.1745  144.7767  158.3845 C.ar    1  UNL1        0.0725
     17 S         140.2635  145.0441  156.9112 S.2     1  UNL1       -0.0625
     18 C         141.5328  145.8008  156.6533 C.ar    1  UNL1        0.1360
     19 N         142.2282  146.0010  157.9673 N.ar    1  UNL1       -0.2203
     20 C         142.8761  138.4623  165.1048 C.3     1  UNL1        0.2110
     21 N         141.1134  136.8045  163.3314 N.3     1  UNL1       -0.3218
     22 C         140.5045  137.6872  164.3803 C.3     1  UNL1        0.0588
     23 C         139.0143  137.7411  164.5424 C.3     1  UNL1        0.0206
     24 C         138.4054  138.6238  165.5912 C.3     1  UNL1        0.0271
     25 C         139.2867  139.4527  166.4779 C.2     1  UNL1       -0.0302
     26 C         140.7769  139.3988  166.3158 C.2     1  UNL1       -0.0218
     27 C         141.3858  138.5161  165.2669 C.3     1  UNL1        0.0798
     28 H         140.3736  136.3175  162.8255 H       1  UNL1        0.1188
     29 H         141.7274  136.1220  163.7760 H       1  UNL1        0.1188
     30 C         141.6583  140.2277  167.2025 C.ar    1  UNL1       -0.0040
     31 C         142.2030  141.5348  166.7079 C.ar    1  UNL1        0.0020
     32 C         143.0844  142.3637  167.5946 C.ar    1  UNL1        0.0296
     33 C         143.4210  141.8854  168.9758 C.ar    1  UNL1        0.1401
     34 F         144.3023  142.7143  169.8625 F       1  UNL1       -0.2042
     35 C         142.8762  140.5782  169.4704 C.ar    1  UNL1        0.0296
     36 C         141.9949  139.7494  168.5837 C.ar    1  UNL1        0.0020
@<TRIPOS>BOND
     1    22    21    1
     2    22    23    1
     3    23    24    1
     4    24    25    1
     5    25    26    2
     6    26    30    1
     7    30    31   ar
     8    31    32   ar
     9    32    33   ar
    10    33    34    1
    11    33    35   ar
    12    35    36   ar
    13    26    27    1
    14    27    20    1
    15    20     1    1
    16     1     2    1
    17     2     3   ar
    18     3     4   ar
    19     4     5    1
    20     4     6   ar
    21     6    10    1
    22    10    11    2
    23    10    12    2
    24    10    13    1
    25    13    15    1
    26    15    16   ar
    27    16    17   ar
    28    17    18   ar
    29    18    19   ar
    30     6     7   ar
    31     7     8   ar
    32     8     9    1
    33    27    22    1
    34     8     2   ar
    35    36    30   ar
    36    19    15   ar
    37    21    28    1
    38    21    29    1
    39    13    14    1
@<TRIPOS>MOLECULE
*****
 36 39 0 0 0
SMALL
GASTEIGER

@<TRIPOS>ATOM
      1 O         137.7375  140.2326  164.8946 O.3     1  UNL1       -0.4741
      2 C         138.4106  141.2871  164.0670 C.ar    1  UNL1        0.1513
      3 C         139.0665  142.4593  164.7347 C.ar    1  UNL1        0.0688
      4 C         139.7397  143.5138  163.9071 C.ar    1  UNL1        0.1620
      5 F         140.3955  144.6860  164.5748 F       1  UNL1       -0.2026
      6 C         139.7570  143.3961  162.4119 C.ar    1  UNL1        0.1535
      7 C         139.1011  142.2239  161.7442 C.ar    1  UNL1        0.0369
      8 C         138.4280  141.1694  162.5717 C.ar    1  UNL1        0.0930
      9 CL        137.7721  139.9972  161.9040 Cl      1  UNL1       -0.0790
     10 S         140.4301  144.4506  161.5843 S.O2    1  UNL1        0.0769
     11 O         139.1982  145.3022  161.6674 O.2     1  UNL1       -0.1498
     12 O         141.6621  143.5989  161.5012 O.2     1  UNL1       -0.1498
     13 N         141.1033  145.5051  160.7567 N.pl3   1  UNL1       -0.1984
     14 H         141.4930  146.2978  161.1915 H       1  UNL1        0.1753
     15 C         141.1825  145.3520  159.2666 C.ar    1  UNL1        0.1542
     16 C         140.1839  144.6455  158.3986 C.ar    1  UNL1        0.0725
     17 S         140.6585  144.7353  156.9784 S.2     1  UNL1       -0.0625
     18 C         141.9505  145.4972  156.9689 C.ar    1  UNL1        0.1360
     19 N         142.2745  145.8784  158.3830 N.ar    1  UNL1       -0.2203
     20 C         138.4828  139.5688  166.0144 C.3     1  UNL1        0.2110
     21 N         139.2666  137.6954  163.8062 N.3     1  UNL1       -0.3218
     22 C         140.3129  138.2464  164.7290 C.3     1  UNL1        0.0588
     23 C         141.7511  137.8607  164.5478 C.3     1  UNL1        0.0206
     24 C         142.7973  138.4117  165.4707 C.3     1  UNL1        0.0271
     25 C         142.4055  139.3483  166.5748 C.2     1  UNL1       -0.0302
     26 C         140.9673  139.7340  166.7560 C.2     1  UNL1       -0.0218
     27 C         139.9210  139.1830  165.8331 C.3     1  UNL1        0.0798
     28 H         139.7069  137.0810  163.1212 H       1  UNL1        0.1188
     29 H         138.8002  138.4635  163.3237 H       1  UNL1        0.1188
     30 C         140.5753  140.6707  167.8601 C.ar    1  UNL1       -0.0040
     31 C         139.8492  140.1486  169.0643 C.ar    1  UNL1        0.0020
     32 C         139.4573  141.0853  170.1684 C.ar    1  UNL1        0.0296
     33 C         139.7915  142.5442  170.0683 C.ar    1  UNL1        0.1401
     34 F         139.3996  143.4809  171.1723 F       1  UNL1       -0.2042
     35 C         140.5176  143.0663  168.8640 C.ar    1  UNL1        0.0296
     36 C         140.9095  142.1296  167.7600 C.ar    1  UNL1        0.0020
@<TRIPOS>BOND
     1    22    21    1
     2    22    23    1
     3    23    24    1
     4    24    25    1
     5    25    26    2
     6    26    30    1
     7    30    31   ar
     8    31    32   ar
     9    32    33   ar
    10    33    34    1
    11    33    35   ar
    12    35    36   ar
    13    26    27    1
    14    27    20    1
    15    20     1    1
    16     1     2    1
    17     2     3   ar
    18     3     4   ar
    19     4     5    1
    20     4     6   ar
    21     6    10    1
    22    10    11    2
    23    10    12    2
    24    10    13    1
    25    13    15    1
    26    15    16   ar
    27    16    17   ar
    28    17    18   ar
    29    18    19   ar
    30     6     7   ar
    31     7     8   ar
    32     8     9    1
    33    27    22    1
    34     8     2   ar
    35    36    30   ar
    36    19    15   ar
    37    21    28    1
    38    21    29    1
    39    13    14    1
@<TRIPOS>MOLECULE
*****
 36 39 0 0 0
SMALL
GASTEIGER

@<TRIPOS>ATOM
      1 O         138.7039  139.4810  164.3657 O.3     1  UNL1       -0.4741
      2 C         139.6184  139.3066  163.1896 C.ar    1  UNL1        0.1513
      3 C         141.0320  139.8038  163.2584 C.ar    1  UNL1        0.0688
      4 C         141.9464  139.6293  162.0822 C.ar    1  UNL1        0.1620
      5 F         143.3600  140.1265  162.1510 F       1  UNL1       -0.2026
      6 C         141.4474  138.9577  160.8373 C.ar    1  UNL1        0.1535
      7 C         140.0339  138.4605  160.7685 C.ar    1  UNL1        0.0369
      8 C         139.1194  138.6349  161.9446 C.ar    1  UNL1        0.0930
      9 CL        137.7059  138.1377  161.8757 Cl      1  UNL1       -0.0790
     10 S         142.3619  138.7833  159.6612 S.O2    1  UNL1        0.0769
     11 O         141.9013  140.0993  159.1079 O.2     1  UNL1       -0.1498
     12 O         142.8224  137.4674  160.2144 O.2     1  UNL1       -0.1498
     13 N         143.2764  138.6090  158.4850 N.pl3   1  UNL1       -0.1984
     14 H         144.1499  139.0628  158.4691 H       1  UNL1        0.1753
     15 C         142.8600  137.7432  157.3331 C.ar    1  UNL1        0.1542
     16 C         141.4561  137.3317  157.0017 C.ar    1  UNL1        0.0725
     17 S         141.5027  136.4710  155.7741 S.2     1  UNL1       -0.0625
     18 C         142.9355  136.3506  155.3467 C.ar    1  UNL1        0.1360
     19 N         143.7744  137.1368  156.3101 N.ar    1  UNL1       -0.2203
     20 C         138.8423  140.6836  165.2515 C.3     1  UNL1        0.2110
     21 N         136.7930  141.3171  163.1541 N.3     1  UNL1       -0.3218
     22 C         137.7489  142.3779  163.6132 C.3     1  UNL1        0.0588
     23 C         137.6802  143.7555  163.0237 C.3     1  UNL1        0.0206
     24 C         138.6362  144.8163  163.4829 C.3     1  UNL1        0.0271
     25 C         139.6608  144.4996  164.5316 C.2     1  UNL1       -0.0302
     26 C         139.7295  143.1220  165.1211 C.2     1  UNL1       -0.0218
     27 C         138.7735  142.0612  164.6619 C.3     1  UNL1        0.0798
     28 H         136.1716  141.7038  162.4436 H       1  UNL1        0.1188
     29 H         136.2410  140.9905  163.9472 H       1  UNL1        0.1188
     30 C         140.7542  142.8052  166.1698 C.ar    1  UNL1       -0.0040
     31 C         142.1519  142.4396  165.7665 C.ar    1  UNL1        0.0020
     32 C         143.1765  142.1228  166.8152 C.ar    1  UNL1        0.0296
     33 C         142.8034  142.1716  168.2672 C.ar    1  UNL1        0.1401
     34 F         143.8280  141.8548  169.3159 F       1  UNL1       -0.2042
     35 C         141.4056  142.5372  168.6705 C.ar    1  UNL1        0.0296
     36 C         140.3810  142.8540  167.6218 C.ar    1  UNL1        0.0020
@<TRIPOS>BOND
     1    22    21    1
     2    22    23    1
     3    23    24    1
     4    24    25    1
     5    25    26    2
     6    26    30    1
     7    30    31   ar
     8    31    32   ar
     9    32    33   ar
    10    33    34    1
    11    33    35   ar
    12    35    36   ar
    13    26    27    1
    14    27    20    1
    15    20     1    1
    16     1     2    1
    17     2     3   ar
    18     3     4   ar
    19     4     5    1
    20     4     6   ar
    21     6    10    1
    22    10    11    2
    23    10    12    2
    24    10    13    1
    25    13    15    1
    26    15    16   ar
    27    16    17   ar
    28    17    18   ar
    29    18    19   ar
    30     6     7   ar
    31     7     8   ar
    32     8     9    1
    33    27    22    1
    34     8     2   ar
    35    36    30   ar
    36    19    15   ar
    37    21    28    1
    38    21    29    1
    39    13    14    1
@<TRIPOS>MOLECULE
*****
 36 39 0 0 0
SMALL
GASTEIGER

@<TRIPOS>ATOM
      1 O         139.1449  140.3586  166.4633 O.3     1  UNL1       -0.4741
      2 C         139.4803  141.4052  165.4425 C.ar    1  UNL1        0.1513
      3 C         139.2048  142.8509  165.7321 C.ar    1  UNL1        0.0688
      4 C         139.5403  143.8975  164.7112 C.ar    1  UNL1        0.1620
      5 F         139.2648  145.3433  165.0009 F       1  UNL1       -0.2026
      6 C         140.1513  143.4983  163.4008 C.ar    1  UNL1        0.1535
      7 C         140.4269  142.0526  163.1112 C.ar    1  UNL1        0.0369
      8 C         140.0914  141.0060  164.1320 C.ar    1  UNL1        0.0930
      9 CL        140.3669  139.5603  163.8423 Cl      1  UNL1       -0.0790
     10 S         140.4868  144.5449  162.3800 S.O2    1  UNL1        0.0769
     11 O         141.8576  144.6840  162.9731 O.2     1  UNL1       -0.1498
     12 O         139.1161  144.4059  161.7870 O.2     1  UNL1       -0.1498
     13 N         140.8224  145.5916  161.3592 N.pl3   1  UNL1       -0.1984
     14 H         140.7963  146.5447  161.6045 H       1  UNL1        0.1753
     15 C         141.1977  145.1860  159.9647 C.ar    1  UNL1        0.1542
     16 C         140.4443  145.5290  158.7138 C.ar    1  UNL1        0.0725
     17 S         141.1732  144.9212  157.5522 S.2     1  UNL1       -0.0625
     18 C         142.3772  144.2026  158.0852 C.ar    1  UNL1        0.1360
     19 N         142.3923  144.3662  159.5762 N.ar    1  UNL1       -0.2203
     20 C         140.1842  139.9107  167.4478 C.3     1  UNL1        0.2110
     21 N         138.8598  140.7006  170.0211 N.3     1  UNL1       -0.3218
     22 C         140.1781  141.3058  169.6395 C.3     1  UNL1        0.0588
     23 C         140.8343  142.3060  170.5445 C.3     1  UNL1        0.0206
     24 C         142.1526  142.9113  170.1628 C.3     1  UNL1        0.0271
     25 C         142.8148  142.5164  168.8762 C.2     1  UNL1       -0.0302
     26 C         142.1587  141.5162  167.9712 C.2     1  UNL1       -0.0218
     27 C         140.8403  140.9109  168.3528 C.3     1  UNL1        0.0798
     28 H         138.5588  141.0798  170.9189 H       1  UNL1        0.1188
     29 H         138.9594  139.6882  170.0958 H       1  UNL1        0.1188
     30 C         142.8208  141.1213  166.6845 C.ar    1  UNL1       -0.0040
     31 C         143.1085  139.6766  166.4016 C.ar    1  UNL1        0.0020
     32 C         143.7707  139.2816  165.1149 C.ar    1  UNL1        0.0296
     33 C         144.1452  140.3314  164.1111 C.ar    1  UNL1        0.1401
     34 F         144.8073  139.9365  162.8244 F       1  UNL1       -0.2042
     35 C         143.8575  141.7762  164.3940 C.ar    1  UNL1        0.0296
     36 C         143.1954  142.1711  165.6806 C.ar    1  UNL1        0.0020
@<TRIPOS>BOND
     1    22    21    1
     2    22    23    1
     3    23    24    1
     4    24    25    1
     5    25    26    2
     6    26    30    1
     7    30    31   ar
     8    31    32   ar
     9    32    33   ar
    10    33    34    1
    11    33    35   ar
    12    35    36   ar
    13    26    27    1
    14    27    20    1
    15    20     1    1
    16     1     2    1
    17     2     3   ar
    18     3     4   ar
    19     4     5    1
    20     4     6   ar
    21     6    10    1
    22    10    11    2
    23    10    12    2
    24    10    13    1
    25    13    15    1
    26    15    16   ar
    27    16    17   ar
    28    17    18   ar
    29    18    19   ar
    30     6     7   ar
    31     7     8   ar
    32     8     9    1
    33    27    22    1
    34     8     2   ar
    35    36    30   ar
    36    19    15   ar
    37    21    28    1
    38    21    29    1
    39    13    14    1
@<TRIPOS>MOLECULE
*****
 36 39 0 0 0
SMALL
GASTEIGER

@<TRIPOS>ATOM
      1 O         143.1581  139.8330  166.8108 O.3     1  UNL1       -0.4741
      2 C         143.0378  140.8061  165.6757 C.ar    1  UNL1        0.1513
      3 C         143.5892  142.1940  165.8159 C.ar    1  UNL1        0.0688
      4 C         143.4688  143.1671  164.6808 C.ar    1  UNL1        0.1620
      5 F         144.0202  144.5550  164.8210 F       1  UNL1       -0.2026
      6 C         142.7971  142.7524  163.4054 C.ar    1  UNL1        0.1535
      7 C         142.2456  141.3645  163.2651 C.ar    1  UNL1        0.0369
      8 C         142.3660  140.3913  164.4002 C.ar    1  UNL1        0.0930
      9 CL        141.8146  139.0034  164.2599 Cl      1  UNL1       -0.0790
     10 S         142.6767  143.7255  162.2703 S.O2    1  UNL1        0.0769
     11 O         144.0803  143.4067  161.8482 O.2     1  UNL1       -0.1498
     12 O         141.2731  144.0442  162.6924 O.2     1  UNL1       -0.1498
     13 N         142.5564  144.6987  161.1351 N.pl3   1  UNL1       -0.1984
     14 H         143.0181  145.5670  161.1801 H       1  UNL1        0.1753
     15 C         141.7326  144.3488  159.9314 C.ar    1  UNL1        0.1542
     16 C         142.0182  143.2434  158.9585 C.ar    1  UNL1        0.0725
     17 S         140.9406  143.2542  157.9151 S.2     1  UNL1       -0.0625
     18 C         139.9890  144.3663  158.2431 C.ar    1  UNL1        0.1360
     19 N         140.4784  145.0428  159.4893 N.ar    1  UNL1       -0.2203
     20 C         142.1311  139.8251  167.9040 C.3     1  UNL1        0.2110
     21 N         143.6933  140.7018  170.3105 N.3     1  UNL1       -0.3218
     22 C         142.5545  141.5397  169.8095 C.3     1  UNL1        0.0588
     23 C         142.1968  142.8160  170.5117 C.3     1  UNL1        0.0206
     24 C         141.0580  143.6539  170.0106 C.3     1  UNL1        0.0271
     25 C         140.2769  143.2156  168.8074 C.2     1  UNL1       -0.0302
     26 C         140.6346  141.9393  168.1052 C.2     1  UNL1       -0.0218
     27 C         141.7734  141.1014  168.6062 C.3     1  UNL1        0.0798
     28 H         144.1081  141.1465  171.1293 H       1  UNL1        0.1188
     29 H         144.3978  140.6129  169.5783 H       1  UNL1        0.1188
     30 C         139.8535  141.5010  166.9020 C.ar    1  UNL1       -0.0040
     31 C         139.2411  140.1323  166.8632 C.ar    1  UNL1        0.0020
     32 C         138.4600  139.6939  165.6599 C.ar    1  UNL1        0.0296
     33 C         138.2914  140.6243  164.4954 C.ar    1  UNL1        0.1401
     34 F         137.5104  140.1859  163.2922 F       1  UNL1       -0.2042
     35 C         138.9039  141.9930  164.5343 C.ar    1  UNL1        0.0296
     36 C         139.6849  142.4313  165.7375 C.ar    1  UNL1        0.0020
@<TRIPOS>BOND
     1    22    21    1
     2    22    23    1
     3    23    24    1
     4    24    25    1
     5    25    26    2
     6    26    30    1
     7    30    31   ar
     8    31    32   ar
     9    32    33   ar
    10    33    34    1
    11    33    35   ar
    12    35    36   ar
    13    26    27    1
    14    27    20    1
    15    20     1    1
    16     1     2    1
    17     2     3   ar
    18     3     4   ar
    19     4     5    1
    20     4     6   ar
    21     6    10    1
    22    10    11    2
    23    10    12    2
    24    10    13    1
    25    13    15    1
    26    15    16   ar
    27    16    17   ar
    28    17    18   ar
    29    18    19   ar
    30     6     7   ar
    31     7     8   ar
    32     8     9    1
    33    27    22    1
    34     8     2   ar
    35    36    30   ar
    36    19    15   ar
    37    21    28    1
    38    21    29    1
    39    13    14    1
@<TRIPOS>MOLECULE
*****
 36 39 0 0 0
SMALL
GASTEIGER

@<TRIPOS>ATOM
      1 O         143.0458  141.3496  166.3340 O.3     1  UNL1       -0.4741
      2 C         142.7212  142.1880  165.1333 C.ar    1  UNL1        0.1513
      3 C         141.5614  141.8229  164.2550 C.ar    1  UNL1        0.0688
      4 C         141.2367  142.6613  163.0543 C.ar    1  UNL1        0.1620
      5 F         140.0769  142.2962  162.1760 F       1  UNL1       -0.2026
      6 C         142.0720  143.8648  162.7319 C.ar    1  UNL1        0.1535
      7 C         143.2318  144.2299  163.6103 C.ar    1  UNL1        0.0369
      8 C         143.5565  143.3915  164.8109 C.ar    1  UNL1        0.0930
      9 CL        144.7163  143.7566  165.6892 Cl      1  UNL1       -0.0790
     10 S         141.7473  144.7032  161.5313 S.O2    1  UNL1        0.0769
     11 O         142.8650  144.0504  160.7732 O.2     1  UNL1       -0.1498
     12 O         140.6297  145.3560  162.2893 O.2     1  UNL1       -0.1498
     13 N         141.4227  145.5416  160.3305 N.pl3   1  UNL1       -0.1984
     14 H         141.6989  146.4861  160.3003 H       1  UNL1        0.1753
     15 C         140.6773  144.9410  159.1757 C.ar    1  UNL1        0.1542
     16 C         140.8286  145.3243  157.7334 C.ar    1  UNL1        0.0725
     17 S         139.8945  144.4717  156.9267 S.2     1  UNL1       -0.0625
     18 C         139.1660  143.5615  157.8705 C.ar    1  UNL1        0.1360
     19 N         139.6497  143.8514  159.2604 N.ar    1  UNL1       -0.2203
     20 C         142.2304  140.1279  166.6384 C.3     1  UNL1        0.2110
     21 N         143.1863  140.6453  169.4346 N.3     1  UNL1       -0.3218
     22 C         141.7294  140.4023  169.1729 C.3     1  UNL1        0.0588
     23 C         140.7505  140.4180  170.3093 C.3     1  UNL1        0.0206
     24 C         139.2936  140.1751  170.0477 C.3     1  UNL1        0.0271
     25 C         138.8157  139.9164  168.6496 C.2     1  UNL1       -0.0302
     26 C         139.7946  139.9007  167.5132 C.2     1  UNL1       -0.0218
     27 C         141.2515  140.1436  167.7749 C.3     1  UNL1        0.0798
     28 H         143.3311  140.8020  170.4321 H       1  UNL1        0.1188
     29 H         143.4930  141.4667  168.9134 H       1  UNL1        0.1188
     30 C         139.3167  139.6420  166.1151 C.ar    1  UNL1       -0.0040
     31 C         139.6315  138.3379  165.4441 C.ar    1  UNL1        0.0020
     32 C         139.1536  138.0792  164.0459 C.ar    1  UNL1        0.0296
     33 C         138.3608  139.1246  163.3189 C.ar    1  UNL1        0.1401
     34 F         137.8829  138.8660  161.9208 F       1  UNL1       -0.2042
     35 C         138.0459  140.4287  163.9899 C.ar    1  UNL1        0.0296
     36 C         138.5239  140.6873  165.3880 C.ar    1  UNL1        0.0020
@<TRIPOS>BOND
     1    22    21    1
     2    22    23    1
     3    23    24    1
     4    24    25    1
     5    25    26    2
     6    26    30    1
     7    30    31   ar
     8    31    32   ar
     9    32    33   ar
    10    33    34    1
    11    33    35   ar
    12    35    36   ar
    13    26    27    1
    14    27    20    1
    15    20     1    1
    16     1     2    1
    17     2     3   ar
    18     3     4   ar
    19     4     5    1
    20     4     6   ar
    21     6    10    1
    22    10    11    2
    23    10    12    2
    24    10    13    1
    25    13    15    1
    26    15    16   ar
    27    16    17   ar
    28    17    18   ar
    29    18    19   ar
    30     6     7   ar
    31     7     8   ar
    32     8     9    1
    33    27    22    1
    34     8     2   ar
    35    36    30   ar
    36    19    15   ar
    37    21    28    1
    38    21    29    1
    39    13    14    1
@<TRIPOS>MOLECULE
*****
 36 39 0 0 0
SMALL
GASTEIGER

@<TRIPOS>ATOM
      1 O         143.1862  140.8436  165.6209 O.3     1  UNL1       -0.4741
      2 C         142.8365  141.7900  164.5109 C.ar    1  UNL1        0.1513
      3 C         141.8449  141.3820  163.4619 C.ar    1  UNL1        0.0688
      4 C         141.4952  142.3285  162.3519 C.ar    1  UNL1        0.1620
      5 F         140.5037  141.9205  161.3029 F       1  UNL1       -0.2026
      6 C         142.1371  143.6828  162.2909 C.ar    1  UNL1        0.1535
      7 C         143.1287  144.0908  163.3399 C.ar    1  UNL1        0.0369
      8 C         143.4784  143.1444  164.4499 C.ar    1  UNL1        0.0930
      9 CL        144.4699  143.5524  165.4989 Cl      1  UNL1       -0.0790
     10 S         141.7874  144.6292  161.1810 S.O2    1  UNL1        0.0769
     11 O         140.7059  145.2269  162.0313 O.2     1  UNL1       -0.1498
     12 O         142.8689  144.0315  160.3306 O.2     1  UNL1       -0.1498
     13 N         141.4377  145.5756  160.0710 N.pl3   1  UNL1       -0.1984
     14 H         141.6813  146.5270  160.1401 H       1  UNL1        0.1753
     15 C         140.7167  145.0724  158.8556 C.ar    1  UNL1        0.1542
     16 C         140.7225  145.7125  157.4990 C.ar    1  UNL1        0.0725
     17 S         139.8728  144.8765  156.5884 S.2     1  UNL1       -0.0625
     18 C         139.3419  143.7198  157.3822 C.ar    1  UNL1        0.1360
     19 N         139.8634  143.8408  158.7834 N.ar    1  UNL1       -0.2203
     20 C         142.1625  139.8716  166.1281 C.3     1  UNL1        0.2110
     21 N         143.3765  138.3991  168.4429 N.3     1  UNL1       -0.3218
     22 C         142.1970  139.2994  168.6622 C.3     1  UNL1        0.0588
     23 C         141.6244  139.4635  170.0388 C.3     1  UNL1        0.0206
     24 C         140.4448  140.3638  170.2581 C.3     1  UNL1        0.0271
     25 C         139.8378  141.1000  169.1008 C.2     1  UNL1       -0.0302
     26 C         140.4104  140.9359  167.7242 C.2     1  UNL1       -0.0218
     27 C         141.5900  140.0356  167.5049 C.3     1  UNL1        0.0798
     28 H         143.6566  137.9833  169.3312 H       1  UNL1        0.1188
     29 H         144.1519  138.9413  168.0618 H       1  UNL1        0.1188
     30 C         139.8034  141.6722  166.5667 C.ar    1  UNL1       -0.0040
     31 C         140.1450  143.1139  166.3326 C.ar    1  UNL1        0.0020
     32 C         139.5380  143.8501  165.1752 C.ar    1  UNL1        0.0296
     33 C         138.5895  143.1446  164.2519 C.ar    1  UNL1        0.1401
     34 F         137.9825  143.8807  163.0945 F       1  UNL1       -0.2042
     35 C         138.2479  141.7028  164.4860 C.ar    1  UNL1        0.0296
     36 C         138.8549  140.9667  165.6434 C.ar    1  UNL1        0.0020
@<TRIPOS>BOND
     1    22    21    1
     2    22    23    1
     3    23    24    1
     4    24    25    1
     5    25    26    2
     6    26    30    1
     7    30    31   ar
     8    31    32   ar
     9    32    33   ar
    10    33    34    1
    11    33    35   ar
    12    35    36   ar
    13    26    27    1
    14    27    20    1
    15    20     1    1
    16     1     2    1
    17     2     3   ar
    18     3     4   ar
    19     4     5    1
    20     4     6   ar
    21     6    10    1
    22    10    11    2
    23    10    12    2
    24    10    13    1
    25    13    15    1
    26    15    16   ar
    27    16    17   ar
    28    17    18   ar
    29    18    19   ar
    30     6     7   ar
    31     7     8   ar
    32     8     9    1
    33    27    22    1
    34     8     2   ar
    35    36    30   ar
    36    19    15   ar
    37    21    28    1
    38    21    29    1
    39    13    14    1
@<TRIPOS>MOLECULE
*****
 36 39 0 0 0
SMALL
GASTEIGER

@<TRIPOS>ATOM
      1 O         139.6059  139.1713  166.9867 O.3     1  UNL1       -0.4741
      2 C         139.2861  139.3991  165.5390 C.ar    1  UNL1        0.1513
      3 C         138.2369  140.3983  165.1508 C.ar    1  UNL1        0.0688
      4 C         137.9172  140.6260  163.7030 C.ar    1  UNL1        0.1620
      5 F         136.8680  141.6253  163.3148 F       1  UNL1       -0.2026
      6 C         138.6467  139.8546  162.6435 C.ar    1  UNL1        0.1535
      7 C         139.6960  138.8554  163.0317 C.ar    1  UNL1        0.0369
      8 C         140.0157  138.6276  164.4793 C.ar    1  UNL1        0.0930
      9 CL        141.0649  137.6284  164.8675 Cl      1  UNL1       -0.0790
     10 S         138.3270  140.0824  161.1958 S.O2    1  UNL1        0.0769
     11 O         137.3408  138.9529  161.2359 O.2     1  UNL1       -0.1498
     12 O         139.3132  141.2119  161.1557 O.2     1  UNL1       -0.1498
     13 N         138.0072  140.3101  159.7480 N.pl3   1  UNL1       -0.1984
     14 H         137.2861  140.9307  159.4949 H       1  UNL1        0.1753
     15 C         138.7863  139.5924  158.6860 C.ar    1  UNL1        0.1542
     16 C         139.9113  138.6277  158.9179 C.ar    1  UNL1        0.0725
     17 S         140.3974  138.1524  157.5808 S.2     1  UNL1       -0.0625
     18 C         139.5728  138.8233  156.5225 C.ar    1  UNL1        0.1360
     19 N         138.5771  139.7133  157.2055 N.ar    1  UNL1       -0.2203
     20 C         139.6042  140.3247  167.9456 C.3     1  UNL1        0.2110
     21 N         140.5901  139.2810  170.5797 N.3     1  UNL1       -0.3218
     22 C         141.3902  140.3064  169.8324 C.3     1  UNL1        0.0588
     23 C         142.6831  140.8099  170.4021 C.3     1  UNL1        0.0206
     24 C         143.4832  141.8353  169.6548 C.3     1  UNL1        0.0271
     25 C         142.9902  142.3572  168.3378 C.2     1  UNL1       -0.0302
     26 C         141.6973  141.8537  167.7681 C.2     1  UNL1       -0.0218
     27 C         140.8972  140.8283  168.5154 C.3     1  UNL1        0.0798
     28 H         141.0699  139.0418  171.4475 H       1  UNL1        0.1188
     29 H         140.4888  138.4441  170.0054 H       1  UNL1        0.1188
     30 C         141.2042  142.3756  166.4510 C.ar    1  UNL1       -0.0040
     31 C         141.8402  141.9106  165.1745 C.ar    1  UNL1        0.0020
     32 C         141.3472  142.4325  163.8574 C.ar    1  UNL1        0.0296
     33 C         140.2182  143.4193  163.8169 C.ar    1  UNL1        0.1401
     34 F         139.7252  143.9412  162.4999 F       1  UNL1       -0.2042
     35 C         139.5822  143.8842  165.0934 C.ar    1  UNL1        0.0296
     36 C         140.0753  143.3624  166.4104 C.ar    1  UNL1        0.0020
@<TRIPOS>BOND
     1    22    21    1
     2    22    23    1
     3    23    24    1
     4    24    25    1
     5    25    26    2
     6    26    30    1
     7    30    31   ar
     8    31    32   ar
     9    32    33   ar
    10    33    34    1
    11    33    35   ar
    12    35    36   ar
    13    26    27    1
    14    27    20    1
    15    20     1    1
    16     1     2    1
    17     2     3   ar
    18     3     4   ar
    19     4     5    1
    20     4     6   ar
    21     6    10    1
    22    10    11    2
    23    10    12    2
    24    10    13    1
    25    13    15    1
    26    15    16   ar
    27    16    17   ar
    28    17    18   ar
    29    18    19   ar
    30     6     7   ar
    31     7     8   ar
    32     8     9    1
    33    27    22    1
    34     8     2   ar
    35    36    30   ar
    36    19    15   ar
    37    21    28    1
    38    21    29    1
    39    13    14    1
@<TRIPOS>MOLECULE
*****
 36 39 0 0 0
SMALL
GASTEIGER

@<TRIPOS>ATOM
      1 O         139.2961  141.7365  165.8307 O.3     1  UNL1       -0.4741
      2 C         139.7761  142.4920  164.6271 C.ar    1  UNL1        0.1513
      3 C         140.4815  141.7677  163.5190 C.ar    1  UNL1        0.0688
      4 C         140.9614  142.5233  162.3153 C.ar    1  UNL1        0.1620
      5 F         141.6668  141.7990  161.2073 F       1  UNL1       -0.2026
      6 C         140.7360  144.0032  162.2198 C.ar    1  UNL1        0.1535
      7 C         140.0306  144.7275  163.3278 C.ar    1  UNL1        0.0369
      8 C         139.5506  143.9720  164.5314 C.ar    1  UNL1        0.0930
      9 CL        138.8453  144.6963  165.6395 Cl      1  UNL1       -0.0790
     10 S         141.2159  144.7587  161.0161 S.O2    1  UNL1        0.0769
     11 O         139.8126  144.8105  160.4890 O.2     1  UNL1       -0.1498
     12 O         142.6193  144.7069  161.5432 O.2     1  UNL1       -0.1498
     13 N         141.6959  145.5143  159.8124 N.pl3   1  UNL1       -0.1984
     14 H         141.9052  146.4736  159.8846 H       1  UNL1        0.1753
     15 C         141.8568  144.8083  158.4988 C.ar    1  UNL1        0.1542
     16 C         142.7010  143.5940  158.2480 C.ar    1  UNL1        0.0725
     17 S         142.5677  143.2278  156.7995 S.2     1  UNL1       -0.0625
     18 C         141.6411  144.2157  156.1550 C.ar    1  UNL1        0.1360
     19 N         141.2017  145.1926  157.2052 N.ar    1  UNL1       -0.2203
     20 C         139.9915  140.4757  166.2512 C.3     1  UNL1        0.2110
     21 N         138.5925  139.5827  168.7503 N.3     1  UNL1       -0.3218
     22 C         140.0375  139.9819  168.8015 C.3     1  UNL1        0.0588
     23 C         140.7830  139.9346  170.1023 C.3     1  UNL1        0.0206
     24 C         142.2280  140.3338  170.1535 C.3     1  UNL1        0.0271
     25 C         142.9275  140.7803  168.9040 C.2     1  UNL1       -0.0302
     26 C         142.1820  140.8276  167.6033 C.2     1  UNL1       -0.0218
     27 C         140.7370  140.4284  167.5520 C.3     1  UNL1        0.0798
     28 H         138.2820  139.3094  169.6827 H       1  UNL1        0.1188
     29 H         138.4794  138.7965  168.1103 H       1  UNL1        0.1188
     30 C         142.8815  141.2741  166.3537 C.ar    1  UNL1       -0.0040
     31 C         143.0471  142.7375  166.0690 C.ar    1  UNL1        0.0020
     32 C         143.7466  143.1840  164.8194 C.ar    1  UNL1        0.0296
     33 C         144.2804  142.1671  163.8545 C.ar    1  UNL1        0.1401
     34 F         144.9799  142.6135  162.6050 F       1  UNL1       -0.2042
     35 C         144.1147  140.7036  164.1393 C.ar    1  UNL1        0.0296
     36 C         143.4153  140.2572  165.3888 C.ar    1  UNL1        0.0020
@<TRIPOS>BOND
     1    22    21    1
     2    22    23    1
     3    23    24    1
     4    24    25    1
     5    25    26    2
     6    26    30    1
     7    30    31   ar
     8    31    32   ar
     9    32    33   ar
    10    33    34    1
    11    33    35   ar
    12    35    36   ar
    13    26    27    1
    14    27    20    1
    15    20     1    1
    16     1     2    1
    17     2     3   ar
    18     3     4   ar
    19     4     5    1
    20     4     6   ar
    21     6    10    1
    22    10    11    2
    23    10    12    2
    24    10    13    1
    25    13    15    1
    26    15    16   ar
    27    16    17   ar
    28    17    18   ar
    29    18    19   ar
    30     6     7   ar
    31     7     8   ar
    32     8     9    1
    33    27    22    1
    34     8     2   ar
    35    36    30   ar
    36    19    15   ar
    37    21    28    1
    38    21    29    1
    39    13    14    1
