@<TRIPOS>MOLECULE
*****
 32 36 0 0 0
SMALL
GASTEIGER

@<TRIPOS>ATOM
      1 C         141.9314  140.0762  170.3463 C.2     1  UNL1        0.2419
      2 O         143.3118  139.7038  170.7998 O.2     1  UNL1       -0.2734
      3 N         141.5874  140.0447  168.8867 N.am    1  UNL1       -0.2694
      4 C         140.2069  140.4171  168.4332 C.3     1  UNL1        0.1184
      5 C         139.8629  140.3856  166.9736 C.3     1  UNL1        0.1299
      6 N         140.8993  139.9815  165.9673 N.ar    1  UNL1       -0.3005
      7 C         142.2798  139.6091  166.4207 C.ar    1  UNL1        0.1416
      8 N         143.0866  139.2548  165.2068 N.ar    1  UNL1       -0.2279
      9 C         142.2048  139.4083  164.0032 C.ar    1  UNL1        0.1125
     10 C         140.8530  139.8574  164.4732 C.ar    1  UNL1        0.1318
     11 C         142.6238  139.6407  167.8804 C.3     1  UNL1        0.1578
     12 C         142.6046  139.1568  162.5794 C.ar    1  UNL1        0.0204
     13 C         143.3265  140.2189  161.8044 C.ar    1  UNL1        0.0016
     14 C         143.7263  139.9675  160.3807 C.ar    1  UNL1        0.0000
     15 C         143.4041  138.6539  159.7320 C.ar    1  UNL1        0.0000
     16 C         142.6821  137.5918  160.5071 C.ar    1  UNL1        0.0000
     17 C         142.2823  137.8433  161.9308 C.ar    1  UNL1        0.0016
     18 N         140.7959  141.9103  171.7944 N.3     1  UNL1       -0.3135
     19 C         140.8950  140.4803  171.3526 C.3     1  UNL1        0.1517
     20 H         140.0428  142.0042  172.4759 H       1  UNL1        0.1193
     21 H         140.6000  142.5026  170.9874 H       1  UNL1        0.1193
     22 N         139.6636  140.1340  163.6020 N.pl3   1  UNL1       -0.2979
     23 H         139.1135  139.3885  163.2690 H       1  UNL1        0.1536
     24 C         139.3125  141.5461  163.2382 C.ar    1  UNL1        0.0526
     25 C         137.9655  142.1003  163.5970 C.ar    1  UNL1        0.0180
     26 C         137.6142  143.5124  163.2332 C.ar    1  UNL1        0.0415
     27 C         138.6099  144.3706  162.5107 C.ar    1  UNL1        0.1765
     28 C         139.9569  143.8166  162.1519 C.ar    1  UNL1        0.1777
     29 C         140.3082  142.4043  162.5157 C.ar    1  UNL1        0.0548
     30 O         140.7271  144.8920  161.4446 O.3     1  UNL1       -0.4346
     31 C         139.8561  146.1107  161.3662 C.3     1  UNL1        0.4294
     32 O         138.5476  145.7884  162.0251 O.3     1  UNL1       -0.4346
@<TRIPOS>BOND
     1    18    19    1
     2    19     1    1
     3     1     2    2
     4     1     3   am
     5     3     4    1
     6     4     5    1
     7     5     6    1
     8     6     7   ar
     9     7     8   ar
    10     8     9   ar
    11     9    12    1
    12    12    13   ar
    13    13    14   ar
    14    14    15   ar
    15    15    16   ar
    16    16    17   ar
    17     9    10   ar
    18    10    22    1
    19    22    24    1
    20    24    25   ar
    21    25    26   ar
    22    26    27   ar
    23    27    28   ar
    24    28    29   ar
    25    28    30    1
    26    30    31    1
    27    31    32    1
    28     7    11    1
    29    11     3    1
    30    10     6   ar
    31    29    24   ar
    32    17    12   ar
    33    32    27    1
    34    18    20    1
    35    18    21    1
    36    22    23    1
@<TRIPOS>MOLECULE
*****
 32 36 0 0 0
SMALL
GASTEIGER

@<TRIPOS>ATOM
      1 C         140.6075  140.8019  170.3532 C.2     1  UNL1        0.2419
      2 O         139.8563  139.5743  170.7759 O.2     1  UNL1       -0.2734
      3 N         141.1600  140.9013  168.9622 N.am    1  UNL1       -0.2694
      4 C         141.9112  142.1289  168.5396 C.3     1  UNL1        0.1184
      5 C         142.4637  142.2283  167.1486 C.3     1  UNL1        0.1299
      6 N         142.2650  141.1002  166.1802 N.ar    1  UNL1       -0.3005
      7 C         141.5138  139.8726  166.6029 C.ar    1  UNL1        0.1416
      8 N         141.4759  138.9283  165.4380 N.ar    1  UNL1       -0.2279
      9 C         142.2037  139.5724  164.2954 C.ar    1  UNL1        0.1125
     10 C         142.6914  140.9147  164.7541 C.ar    1  UNL1        0.1318
     11 C         140.9613  139.7732  167.9939 C.3     1  UNL1        0.1578
     12 C         142.4079  138.9784  162.9332 C.ar    1  UNL1        0.0204
     13 C         141.2674  138.9228  161.9605 C.ar    1  UNL1        0.0016
     14 C         141.4716  138.3289  160.5984 C.ar    1  UNL1        0.0000
     15 C         142.8163  137.7907  160.2088 C.ar    1  UNL1        0.0000
     16 C         143.9569  137.8463  161.1814 C.ar    1  UNL1        0.0000
     17 C         143.7527  138.4402  162.5436 C.ar    1  UNL1        0.0016
     18 N         142.1240  142.0969  172.0184 N.3     1  UNL1       -0.3135
     19 C         140.8063  141.9300  171.3216 C.3     1  UNL1        0.1517
     20 H         142.0821  142.9082  172.6353 H       1  UNL1        0.1193
     21 H         142.8600  142.2343  171.3257 H       1  UNL1        0.1193
     22 N         143.4689  141.8987  163.9313 N.pl3   1  UNL1       -0.2979
     23 H         144.4491  141.9427  164.0129 H       1  UNL1        0.1536
     24 C         142.7532  142.8155  162.9842 C.ar    1  UNL1        0.0526
     25 C         143.0661  142.7720  161.5178 C.ar    1  UNL1        0.0180
     26 C         142.3505  143.6888  160.5706 C.ar    1  UNL1        0.0415
     27 C         141.3219  144.6493  161.0897 C.ar    1  UNL1        0.1765
     28 C         141.0090  144.6929  162.5561 C.ar    1  UNL1        0.1777
     29 C         141.7247  143.7760  163.5033 C.ar    1  UNL1        0.0548
     30 O         139.9545  145.7372  162.7742 O.3     1  UNL1       -0.4346
     31 C         139.6158  146.3390  161.4426 C.3     1  UNL1        0.4294
     32 O         140.4608  145.6666  160.4015 O.3     1  UNL1       -0.4346
@<TRIPOS>BOND
     1    18    19    1
     2    19     1    1
     3     1     2    2
     4     1     3   am
     5     3     4    1
     6     4     5    1
     7     5     6    1
     8     6     7   ar
     9     7     8   ar
    10     8     9   ar
    11     9    12    1
    12    12    13   ar
    13    13    14   ar
    14    14    15   ar
    15    15    16   ar
    16    16    17   ar
    17     9    10   ar
    18    10    22    1
    19    22    24    1
    20    24    25   ar
    21    25    26   ar
    22    26    27   ar
    23    27    28   ar
    24    28    29   ar
    25    28    30    1
    26    30    31    1
    27    31    32    1
    28     7    11    1
    29    11     3    1
    30    10     6   ar
    31    29    24   ar
    32    17    12   ar
    33    32    27    1
    34    18    20    1
    35    18    21    1
    36    22    23    1
@<TRIPOS>MOLECULE
*****
 32 36 0 0 0
SMALL
GASTEIGER

@<TRIPOS>ATOM
      1 C         141.1396  138.2384  156.4856 C.2     1  UNL1        0.2419
      2 O         139.8039  138.4398  155.8335 O.2     1  UNL1       -0.2734
      3 N         141.2477  138.2126  157.9814 N.am    1  UNL1       -0.2694
      4 C         142.5835  138.0112  158.6335 C.3     1  UNL1        0.1184
      5 C         142.6916  137.9854  160.1293 C.3     1  UNL1        0.1299
      6 N         141.4640  138.1610  160.9732 N.ar    1  UNL1       -0.3005
      7 C         140.1283  138.3624  160.3211 C.ar    1  UNL1        0.1416
      8 N         139.1007  138.5068  161.4044 N.ar    1  UNL1       -0.2279
      9 C         139.8014  138.3947  162.7259 C.ar    1  UNL1        0.1125
     10 C         141.2620  138.1809  162.4594 C.ar    1  UNL1        0.1318
     11 C         140.0201  138.3882  158.8253 C.3     1  UNL1        0.1578
     12 C         139.1551  138.4812  164.0768 C.ar    1  UNL1        0.0204
     13 C         138.8796  137.2305  164.8578 C.ar    1  UNL1        0.0016
     14 C         138.2332  137.3169  166.2086 C.ar    1  UNL1        0.0000
     15 C         137.8625  138.6540  166.7784 C.ar    1  UNL1        0.0000
     16 C         138.1380  139.9046  165.9974 C.ar    1  UNL1        0.0000
     17 C         138.7843  139.8182  164.6466 C.ar    1  UNL1        0.0016
     18 N         142.4794  136.8878  154.7161 N.3     1  UNL1       -0.3135
     19 C         142.3672  138.0629  155.6417 C.3     1  UNL1        0.1517
     20 H         143.3721  136.9264  154.2243 H       1  UNL1        0.1193
     21 H         141.7168  136.9142  154.0393 H       1  UNL1        0.1193
     22 N         142.3327  138.0161  163.4969 N.pl3   1  UNL1       -0.2979
     23 H         142.9492  137.2499  163.4506 H       1  UNL1        0.1536
     24 C         142.4641  139.0185  164.6050 C.ar    1  UNL1        0.0526
     25 C         142.4578  140.4859  164.2935 C.ar    1  UNL1        0.0180
     26 C         142.5892  141.4884  165.4015 C.ar    1  UNL1        0.0415
     27 C         142.7268  141.0236  166.8210 C.ar    1  UNL1        0.1765
     28 C         142.7330  139.5563  167.1326 C.ar    1  UNL1        0.1777
     29 C         142.6017  138.5538  166.0245 C.ar    1  UNL1        0.0548
     30 O         142.8827  139.3981  168.6167 O.3     1  UNL1       -0.4346
     31 C         142.9689  140.7677  169.2224 C.3     1  UNL1        0.4294
     32 O         142.8726  141.7723  168.1127 O.3     1  UNL1       -0.4346
@<TRIPOS>BOND
     1    18    19    1
     2    19     1    1
     3     1     2    2
     4     1     3   am
     5     3     4    1
     6     4     5    1
     7     5     6    1
     8     6     7   ar
     9     7     8   ar
    10     8     9   ar
    11     9    12    1
    12    12    13   ar
    13    13    14   ar
    14    14    15   ar
    15    15    16   ar
    16    16    17   ar
    17     9    10   ar
    18    10    22    1
    19    22    24    1
    20    24    25   ar
    21    25    26   ar
    22    26    27   ar
    23    27    28   ar
    24    28    29   ar
    25    28    30    1
    26    30    31    1
    27    31    32    1
    28     7    11    1
    29    11     3    1
    30    10     6   ar
    31    29    24   ar
    32    17    12   ar
    33    32    27    1
    34    18    20    1
    35    18    21    1
    36    22    23    1
@<TRIPOS>MOLECULE
*****
 32 36 0 0 0
SMALL
GASTEIGER

@<TRIPOS>ATOM
      1 C         143.1129  138.7109  156.4486 C.2     1  UNL1        0.2419
      2 O         142.1612  137.8080  155.7213 O.2     1  UNL1       -0.2734
      3 N         142.8672  139.0569  157.8873 N.am    1  UNL1       -0.2694
      4 C         143.8189  139.9598  158.6146 C.3     1  UNL1        0.1184
      5 C         143.5732  140.3058  160.0533 C.3     1  UNL1        0.1299
      6 N         142.3759  139.7489  160.7647 N.ar    1  UNL1       -0.3005
      7 C         141.4242  138.8460  160.0374 C.ar    1  UNL1        0.1416
      8 N         140.3377  138.4511  160.9933 N.ar    1  UNL1       -0.2279
      9 C         140.6179  139.1100  162.3114 C.ar    1  UNL1        0.1125
     10 C         141.8776  139.9121  162.1701 C.ar    1  UNL1        0.1318
     11 C         141.6699  138.5000  158.5987 C.3     1  UNL1        0.1578
     12 C         139.7848  138.9883  163.5528 C.ar    1  UNL1        0.0204
     13 C         138.9955  140.1652  164.0448 C.ar    1  UNL1        0.0016
     14 C         138.1624  140.0435  165.2862 C.ar    1  UNL1        0.0000
     15 C         138.1186  138.7449  166.0356 C.ar    1  UNL1        0.0000
     16 C         138.9078  137.5680  165.5436 C.ar    1  UNL1        0.0000
     17 C         139.7409  137.6897  164.3023 C.ar    1  UNL1        0.0016
     18 N         144.8240  138.5987  154.4968 N.3     1  UNL1       -0.3135
     19 C         144.3102  139.2678  155.7371 C.3     1  UNL1        0.1517
     20 H         145.6366  139.1070  154.1481 H       1  UNL1        0.1193
     21 H         144.0936  138.5957  153.7847 H       1  UNL1        0.1193
     22 N         142.5253  140.7332  163.2454 N.pl3   1  UNL1       -0.2979
     23 H         142.8441  141.6429  163.0453 H       1  UNL1        0.1536
     24 C         142.6873  140.1683  164.6254 C.ar    1  UNL1        0.0526
     25 C         143.3965  138.8612  164.8224 C.ar    1  UNL1        0.0180
     26 C         143.5585  138.2962  166.2024 C.ar    1  UNL1        0.0415
     27 C         143.0115  139.0383  167.3856 C.ar    1  UNL1        0.1765
     28 C         142.3023  140.3454  167.1888 C.ar    1  UNL1        0.1777
     29 C         142.1402  140.9104  165.8087 C.ar    1  UNL1        0.0548
     30 O         141.8717  140.8465  168.5354 O.3     1  UNL1       -0.4346
     31 C         142.3148  139.8492  169.5645 C.3     1  UNL1        0.4294
     32 O         143.0192  138.7317  168.8539 O.3     1  UNL1       -0.4346
@<TRIPOS>BOND
     1    18    19    1
     2    19     1    1
     3     1     2    2
     4     1     3   am
     5     3     4    1
     6     4     5    1
     7     5     6    1
     8     6     7   ar
     9     7     8   ar
    10     8     9   ar
    11     9    12    1
    12    12    13   ar
    13    13    14   ar
    14    14    15   ar
    15    15    16   ar
    16    16    17   ar
    17     9    10   ar
    18    10    22    1
    19    22    24    1
    20    24    25   ar
    21    25    26   ar
    22    26    27   ar
    23    27    28   ar
    24    28    29   ar
    25    28    30    1
    26    30    31    1
    27    31    32    1
    28     7    11    1
    29    11     3    1
    30    10     6   ar
    31    29    24   ar
    32    17    12   ar
    33    32    27    1
    34    18    20    1
    35    18    21    1
    36    22    23    1
@<TRIPOS>MOLECULE
*****
 32 36 0 0 0
SMALL
GASTEIGER

@<TRIPOS>ATOM
      1 C         140.0918  140.4782  170.4413 C.2     1  UNL1        0.2419
      2 O         138.9839  139.5781  170.9022 O.2     1  UNL1       -0.2734
      3 N         140.3284  140.6858  168.9747 N.am    1  UNL1       -0.2694
      4 C         141.4362  141.5859  168.5138 C.3     1  UNL1        0.1184
      5 C         141.6728  141.7936  167.0472 C.3     1  UNL1        0.1299
      6 N         140.8016  141.1012  166.0415 N.ar    1  UNL1       -0.3005
      7 C         139.6938  140.2011  166.5024 C.ar    1  UNL1        0.1416
      8 N         139.0029  139.6567  165.2873 N.ar    1  UNL1       -0.2279
      9 C         139.6838  140.2204  164.0754 C.ar    1  UNL1        0.1125
     10 C         140.7955  141.1131  164.5416 C.ar    1  UNL1        0.1318
     11 C         139.4571  139.9934  167.9690 C.3     1  UNL1        0.1578
     12 C         139.3174  139.9405  162.6480 C.ar    1  UNL1        0.0204
     13 C         138.4725  140.9174  161.8852 C.ar    1  UNL1        0.0016
     14 C         138.1061  140.6376  160.4578 C.ar    1  UNL1        0.0000
     15 C         138.5846  139.3809  159.7933 C.ar    1  UNL1        0.0000
     16 C         139.4295  138.4040  160.5561 C.ar    1  UNL1        0.0000
     17 C         139.7959  138.6838  161.9834 C.ar    1  UNL1        0.0016
     18 N         142.2834  140.5729  171.8332 N.3     1  UNL1       -0.3135
     19 C         140.9630  141.1706  171.4470 C.3     1  UNL1        0.1517
     20 H         142.7389  141.1713  172.5223 H       1  UNL1        0.1193
     21 H         142.8759  140.4943  171.0066 H       1  UNL1        0.1193
     22 N         141.7359  141.8827  163.6622 N.pl3   1  UNL1       -0.2979
     23 H         142.7013  141.6916  163.6878 H       1  UNL1        0.1536
     24 C         141.2054  142.9434  162.7438 C.ar    1  UNL1        0.0526
     25 C         140.2464  143.9736  163.2625 C.ar    1  UNL1        0.0180
     26 C         139.7159  145.0343  162.3442 C.ar    1  UNL1        0.0415
     27 C         140.1444  145.0649  160.9070 C.ar    1  UNL1        0.1765
     28 C         141.1034  144.0348  160.3882 C.ar    1  UNL1        0.1777
     29 C         141.6339  142.9740  161.3066 C.ar    1  UNL1        0.0548
     30 O         141.3438  144.3157  158.9345 O.3     1  UNL1       -0.4346
     31 C         140.5333  145.5195  158.5549 C.3     1  UNL1        0.4294
     32 O         139.7920  145.9825  159.7739 O.3     1  UNL1       -0.4346
@<TRIPOS>BOND
     1    18    19    1
     2    19     1    1
     3     1     2    2
     4     1     3   am
     5     3     4    1
     6     4     5    1
     7     5     6    1
     8     6     7   ar
     9     7     8   ar
    10     8     9   ar
    11     9    12    1
    12    12    13   ar
    13    13    14   ar
    14    14    15   ar
    15    15    16   ar
    16    16    17   ar
    17     9    10   ar
    18    10    22    1
    19    22    24    1
    20    24    25   ar
    21    25    26   ar
    22    26    27   ar
    23    27    28   ar
    24    28    29   ar
    25    28    30    1
    26    30    31    1
    27    31    32    1
    28     7    11    1
    29    11     3    1
    30    10     6   ar
    31    29    24   ar
    32    17    12   ar
    33    32    27    1
    34    18    20    1
    35    18    21    1
    36    22    23    1
@<TRIPOS>MOLECULE
*****
 32 36 0 0 0
SMALL
GASTEIGER

@<TRIPOS>ATOM
      1 C         137.6542  142.3465  155.2620 C.2     1  UNL1        0.2419
      2 O         136.4170  141.5054  155.3705 O.2     1  UNL1       -0.2734
      3 N         138.3504  142.8202  156.5033 N.am    1  UNL1       -0.2694
      4 C         139.5876  143.6613  156.3948 C.3     1  UNL1        0.1184
      5 C         140.2838  144.1350  157.6361 C.3     1  UNL1        0.1299
      6 N         139.7428  143.7675  158.9860 N.ar    1  UNL1       -0.3005
      7 C         138.5056  142.9264  159.0945 C.ar    1  UNL1        0.1416
      8 N         138.2085  142.7247  160.5510 N.ar    1  UNL1       -0.2279
      9 C         139.2621  143.4413  161.3425 C.ar    1  UNL1        0.1125
     10 C         140.2104  144.0857  160.3753 C.ar    1  UNL1        0.1318
     11 C         137.8094  142.4527  157.8532 C.3     1  UNL1        0.1578
     12 C         139.3517  143.5026  162.8386 C.ar    1  UNL1        0.0204
     13 C         138.8225  144.6985  163.5733 C.ar    1  UNL1        0.0016
     14 C         138.9121  144.7599  165.0693 C.ar    1  UNL1        0.0000
     15 C         139.5309  143.6253  165.8307 C.ar    1  UNL1        0.0000
     16 C         140.0602  142.4294  165.0960 C.ar    1  UNL1        0.0000
     17 C         139.9706  142.3680  163.6000 C.ar    1  UNL1        0.0016
     18 N         137.7850  144.0038  153.2654 N.3     1  UNL1       -0.3135
     19 C         138.1952  142.7140  153.9121 C.3     1  UNL1        0.1517
     20 H         138.2444  144.0907  152.3588 H       1  UNL1        0.1193
     21 H         138.0585  144.7850  153.8614 H       1  UNL1        0.1193
     22 N         141.4147  144.9046  160.7343 N.pl3   1  UNL1       -0.2979
     23 H         141.5583  145.7812  160.3098 H       1  UNL1        0.1536
     24 C         142.4003  144.3880  161.7402 C.ar    1  UNL1        0.0526
     25 C         142.5325  145.0606  163.0744 C.ar    1  UNL1        0.0180
     26 C         143.5181  144.5441  164.0804 C.ar    1  UNL1        0.0415
     27 C         144.3714  143.3550  163.7521 C.ar    1  UNL1        0.1765
     28 C         144.2392  142.6823  162.4179 C.ar    1  UNL1        0.1777
     29 C         143.2536  143.1989  161.4119 C.ar    1  UNL1        0.0548
     30 O         145.2080  141.5379  162.3777 O.3     1  UNL1       -0.4346
     31 C         145.9390  141.5032  163.6871 C.3     1  UNL1        0.4294
     32 O         145.4219  142.6263  164.5365 O.3     1  UNL1       -0.4346
@<TRIPOS>BOND
     1    18    19    1
     2    19     1    1
     3     1     2    2
     4     1     3   am
     5     3     4    1
     6     4     5    1
     7     5     6    1
     8     6     7   ar
     9     7     8   ar
    10     8     9   ar
    11     9    12    1
    12    12    13   ar
    13    13    14   ar
    14    14    15   ar
    15    15    16   ar
    16    16    17   ar
    17     9    10   ar
    18    10    22    1
    19    22    24    1
    20    24    25   ar
    21    25    26   ar
    22    26    27   ar
    23    27    28   ar
    24    28    29   ar
    25    28    30    1
    26    30    31    1
    27    31    32    1
    28     7    11    1
    29    11     3    1
    30    10     6   ar
    31    29    24   ar
    32    17    12   ar
    33    32    27    1
    34    18    20    1
    35    18    21    1
    36    22    23    1
@<TRIPOS>MOLECULE
*****
 32 36 0 0 0
SMALL
GASTEIGER

@<TRIPOS>ATOM
      1 C         140.1195  140.9430  170.4063 C.2     1  UNL1        0.2419
      2 O         139.6497  139.6084  170.9042 O.2     1  UNL1       -0.2734
      3 N         140.1131  141.2397  168.9359 N.am    1  UNL1       -0.2694
      4 C         140.5829  142.5743  168.4380 C.3     1  UNL1        0.1184
      5 C         140.5765  142.8710  166.9677 C.3     1  UNL1        0.1299
      6 N         140.1003  141.8330  165.9952 N.ar    1  UNL1       -0.3005
      7 C         139.6305  140.4983  166.4931 C.ar    1  UNL1        0.1416
      8 N         139.2203  139.6787  165.3056 N.ar    1  UNL1       -0.2279
      9 C         139.4366  140.5069  164.0738 C.ar    1  UNL1        0.1125
     10 C         139.9805  141.8383  164.5000 C.ar    1  UNL1        0.1318
     11 C         139.6369  140.2017  167.9635 C.3     1  UNL1        0.1578
     12 C         139.1580  140.0788  162.6634 C.ar    1  UNL1        0.0204
     13 C         137.8249  140.3705  162.0406 C.ar    1  UNL1        0.0016
     14 C         137.5463  139.9425  160.6303 C.ar    1  UNL1        0.0000
     15 C         138.6007  139.2229  159.8427 C.ar    1  UNL1        0.0000
     16 C         139.9337  138.9312  160.4655 C.ar    1  UNL1        0.0000
     17 C         140.2124  139.3592  161.8758 C.ar    1  UNL1        0.0016
     18 N         142.0434  142.0363  171.7677 N.3     1  UNL1       -0.3135
     19 C         140.5957  141.9810  171.3788 C.3     1  UNL1        0.1517
     20 H         142.1882  142.7968  172.4318 H       1  UNL1        0.1193
     21 H         142.6127  142.1974  170.9369 H       1  UNL1        0.1193
     22 N         140.3412  142.9754  163.5907 N.pl3   1  UNL1       -0.2979
     23 H         139.7844  143.7871  163.5729 H       1  UNL1        0.1536
     24 C         141.5502  142.8757  162.7084 C.ar    1  UNL1        0.0526
     25 C         142.9157  142.7573  163.3179 C.ar    1  UNL1        0.0180
     26 C         144.1248  142.6577  162.4357 C.ar    1  UNL1        0.0415
     27 C         143.9683  142.6764  160.9440 C.ar    1  UNL1        0.1765
     28 C         142.6029  142.7948  160.3345 C.ar    1  UNL1        0.1777
     29 C         141.3938  142.8945  161.2168 C.ar    1  UNL1        0.0548
     30 O         142.7588  142.7870  158.8426 O.3     1  UNL1       -0.4346
     31 C         144.2207  142.6638  158.5301 C.3     1  UNL1        0.4294
     32 O         144.9682  142.5954  159.8288 O.3     1  UNL1       -0.4346
@<TRIPOS>BOND
     1    18    19    1
     2    19     1    1
     3     1     2    2
     4     1     3   am
     5     3     4    1
     6     4     5    1
     7     5     6    1
     8     6     7   ar
     9     7     8   ar
    10     8     9   ar
    11     9    12    1
    12    12    13   ar
    13    13    14   ar
    14    14    15   ar
    15    15    16   ar
    16    16    17   ar
    17     9    10   ar
    18    10    22    1
    19    22    24    1
    20    24    25   ar
    21    25    26   ar
    22    26    27   ar
    23    27    28   ar
    24    28    29   ar
    25    28    30    1
    26    30    31    1
    27    31    32    1
    28     7    11    1
    29    11     3    1
    30    10     6   ar
    31    29    24   ar
    32    17    12   ar
    33    32    27    1
    34    18    20    1
    35    18    21    1
    36    22    23    1
@<TRIPOS>MOLECULE
*****
 32 36 0 0 0
SMALL
GASTEIGER

@<TRIPOS>ATOM
      1 C         143.1349  137.3132  155.4143 C.2     1  UNL1        0.2419
      2 O         144.4887  136.7276  155.6865 O.2     1  UNL1       -0.2734
      3 N         142.2516  137.7227  156.5555 N.am    1  UNL1       -0.2694
      4 C         140.8978  138.3082  156.2833 C.3     1  UNL1        0.1184
      5 C         140.0145  138.7177  157.4245 C.3     1  UNL1        0.1299
      6 N         140.4852  138.5416  158.8378 N.ar    1  UNL1       -0.3005
      7 C         141.8390  137.9560  159.1099 C.ar    1  UNL1        0.1416
      8 N         142.0309  137.9032  160.5967 N.ar    1  UNL1       -0.2279
      9 C         140.7956  138.4561  161.2434 C.ar    1  UNL1        0.1125
     10 C         139.8403  138.8507  160.1563 C.ar    1  UNL1        0.1318
     11 C         142.7223  137.5466  157.9688 C.3     1  UNL1        0.1578
     12 C         140.5573  138.5909  162.7183 C.ar    1  UNL1        0.0204
     13 C         141.2452  139.6755  163.4931 C.ar    1  UNL1        0.0016
     14 C         141.0070  139.8103  164.9678 C.ar    1  UNL1        0.0000
     15 C         140.0809  138.8604  165.6678 C.ar    1  UNL1        0.0000
     16 C         139.3931  137.7758  164.8930 C.ar    1  UNL1        0.0000
     17 C         139.6313  137.6410  163.4182 C.ar    1  UNL1        0.0016
     18 N         143.3137  138.5116  153.1161 N.3     1  UNL1       -0.3135
     19 C         142.6642  137.4893  154.0010 C.3     1  UNL1        0.1517
     20 H         142.8721  138.4953  152.1968 H       1  UNL1        0.1193
     21 H         144.3063  138.2970  153.0204 H       1  UNL1        0.1193
     22 N         138.4790  139.4493  160.3532 N.pl3   1  UNL1       -0.2979
     23 H         137.6921  139.0307  159.9351 H       1  UNL1        0.1536
     24 C         138.3167  140.6855  161.1869 C.ar    1  UNL1        0.0526
     25 C         137.5089  140.6377  162.4499 C.ar    1  UNL1        0.0180
     26 C         137.3465  141.8739  163.2838 C.ar    1  UNL1        0.0415
     27 C         137.9920  143.1581  162.8547 C.ar    1  UNL1        0.1765
     28 C         138.7999  143.2061  161.5917 C.ar    1  UNL1        0.1777
     29 C         138.9623  141.9697  160.7578 C.ar    1  UNL1        0.0548
     30 O         139.3149  144.6048  161.4236 O.3     1  UNL1       -0.4346
     31 C         138.8253  145.4214  162.5827 C.3     1  UNL1        0.4294
     32 O         138.0077  144.5273  163.4672 O.3     1  UNL1       -0.4346
@<TRIPOS>BOND
     1    18    19    1
     2    19     1    1
     3     1     2    2
     4     1     3   am
     5     3     4    1
     6     4     5    1
     7     5     6    1
     8     6     7   ar
     9     7     8   ar
    10     8     9   ar
    11     9    12    1
    12    12    13   ar
    13    13    14   ar
    14    14    15   ar
    15    15    16   ar
    16    16    17   ar
    17     9    10   ar
    18    10    22    1
    19    22    24    1
    20    24    25   ar
    21    25    26   ar
    22    26    27   ar
    23    27    28   ar
    24    28    29   ar
    25    28    30    1
    26    30    31    1
    27    31    32    1
    28     7    11    1
    29    11     3    1
    30    10     6   ar
    31    29    24   ar
    32    17    12   ar
    33    32    27    1
    34    18    20    1
    35    18    21    1
    36    22    23    1
@<TRIPOS>MOLECULE
*****
 32 36 0 0 0
SMALL
GASTEIGER

@<TRIPOS>ATOM
      1 C         142.1785  137.5732  157.5776 C.2     1  UNL1        0.2419
      2 O         141.4265  138.1211  156.4011 O.2     1  UNL1       -0.2734
      3 N         142.0397  138.2199  158.9239 N.am    1  UNL1       -0.2694
      4 C         142.7917  137.6719  160.1003 C.3     1  UNL1        0.1184
      5 C         142.6528  138.3187  161.4466 C.3     1  UNL1        0.1299
      6 N         141.7619  139.5134  161.6164 N.ar    1  UNL1       -0.3005
      7 C         141.0099  140.0614  160.4399 C.ar    1  UNL1        0.1416
      8 N         140.2120  141.2420  160.9088 N.ar    1  UNL1       -0.2279
      9 C         140.4710  141.4236  162.3751 C.ar    1  UNL1        0.1125
     10 C         141.4289  140.3553  162.8124 C.ar    1  UNL1        0.1318
     11 C         141.1488  139.4147  159.0937 C.3     1  UNL1        0.1578
     12 C         139.8764  142.4868  163.2504 C.ar    1  UNL1        0.0204
     13 C         138.4396  142.3950  163.6712 C.ar    1  UNL1        0.0016
     14 C         137.8450  143.4581  164.5465 C.ar    1  UNL1        0.0000
     15 C         138.6873  144.6131  165.0010 C.ar    1  UNL1        0.0000
     16 C         140.1241  144.7049  164.5801 C.ar    1  UNL1        0.0000
     17 C         140.7187  143.6417  163.7049 C.ar    1  UNL1        0.0016
     18 N         142.6153  135.2165  156.5749 N.3     1  UNL1       -0.3135
     19 C         143.0694  136.3784  157.4078 C.3     1  UNL1        0.1517
     20 H         143.3400  134.4988  156.5687 H       1  UNL1        0.1193
     21 H         142.4396  135.5305  155.6205 H       1  UNL1        0.1193
     22 N         141.9604  140.1626  164.2017 N.pl3   1  UNL1       -0.2979
     23 H         142.9320  140.1539  164.3602 H       1  UNL1        0.1536
     24 C         141.0116  139.9833  165.3496 C.ar    1  UNL1        0.0526
     25 C         139.7622  139.1728  165.1704 C.ar    1  UNL1        0.0180
     26 C         138.8133  138.9935  166.3182 C.ar    1  UNL1        0.0415
     27 C         139.1139  139.6246  167.6453 C.ar    1  UNL1        0.1765
     28 C         140.3633  140.4351  167.8247 C.ar    1  UNL1        0.1777
     29 C         141.3122  140.6144  166.6768 C.ar    1  UNL1        0.0548
     30 O         140.3934  140.9336  169.2391 O.3     1  UNL1       -0.4346
     31 C         139.1627  140.4312  169.9339 C.3     1  UNL1        0.4294
     32 O         138.3718  139.6222  168.9489 O.3     1  UNL1       -0.4346
@<TRIPOS>BOND
     1    18    19    1
     2    19     1    1
     3     1     2    2
     4     1     3   am
     5     3     4    1
     6     4     5    1
     7     5     6    1
     8     6     7   ar
     9     7     8   ar
    10     8     9   ar
    11     9    12    1
    12    12    13   ar
    13    13    14   ar
    14    14    15   ar
    15    15    16   ar
    16    16    17   ar
    17     9    10   ar
    18    10    22    1
    19    22    24    1
    20    24    25   ar
    21    25    26   ar
    22    26    27   ar
    23    27    28   ar
    24    28    29   ar
    25    28    30    1
    26    30    31    1
    27    31    32    1
    28     7    11    1
    29    11     3    1
    30    10     6   ar
    31    29    24   ar
    32    17    12   ar
    33    32    27    1
    34    18    20    1
    35    18    21    1
    36    22    23    1
