@<TRIPOS>MOLECULE
*****
 39 44 0 0 0
SMALL
GASTEIGER

@<TRIPOS>ATOM
      1 C         141.1837  144.7745  158.6407 C.3     1  UNL1        0.0294
      2 C         139.9839  144.5459  157.7698 C.3     1  UNL1        0.0666
      3 S         139.2374  143.2472  157.8473 S.3     1  UNL1       -0.0756
      4 C         139.4700  140.9399  160.9599 C.ar    1  UNL1        0.1669
      5 N         138.4015  141.9008  161.3905 N.ar    1  UNL1       -0.1282
      6 N         138.1844  142.8819  160.2769 N.ar    1  UNL1       -0.1221
      7 C         139.1186  142.5276  159.1581 C.ar    1  UNL1        0.1932
      8 N         139.9131  141.3274  159.5803 N.ar    1  UNL1       -0.2884
      9 C         140.9660  140.6360  158.7657 C.3     1  UNL1        0.1340
     10 C         138.0426  138.9037  167.3683 C.3     1  UNL1        0.0521
     11 C         138.5324  139.1261  165.9680 C.ar    1  UNL1        0.0593
     12 C         138.0005  140.2730  165.1606 C.ar    1  UNL1        0.0147
     13 C         138.4904  140.4952  163.7604 C.ar    1  UNL1        0.0028
     14 C         139.5120  139.5707  163.1675 C.ar    1  UNL1        0.0206
     15 C         140.0018  139.7931  161.7672 C.ar    1  UNL1        0.0374
     16 C         141.0234  138.8686  161.1745 C.ar    1  UNL1        0.0031
     17 C         141.5553  137.7217  161.9818 C.ar    1  UNL1        0.0016
     18 C         141.0655  137.4994  163.3820 C.ar    1  UNL1        0.0191
     19 C         140.0439  138.4239  163.9749 C.ar    1  UNL1        0.0810
     20 N         139.5541  138.2015  165.3752 N.ar    1  UNL1       -0.2497
     21 C         141.0376  145.5069  159.9415 C.3     1  UNL1        0.0730
     22 N         141.0644  144.7494  161.2359 N.3     1  UNL1       -0.2720
     23 C         140.1420  145.2553  162.3052 C.3     1  UNL1        0.0768
     24 C         139.9374  144.7229  163.6926 C.3     1  UNL1        0.0433
     25 C         140.6047  143.5532  164.3532 C.ar    1  UNL1       -0.0250
     26 C         140.1095  143.3604  165.7560 C.ar    1  UNL1       -0.0070
     27 C         140.6510  142.2413  166.5953 C.ar    1  UNL1        0.0017
     28 C         141.6876  141.3150  166.0319 C.ar    1  UNL1        0.0509
     29 C         142.1827  141.5078  164.6291 C.ar    1  UNL1       -0.0003
     30 C         141.6413  142.6269  163.7898 C.ar    1  UNL1       -0.0246
     31 C         142.2667  142.6416  162.4265 C.3     1  UNL1        0.0433
     32 C         142.0099  143.5863  161.2899 C.3     1  UNL1        0.0768
     33 C         142.0334  140.3084  167.0888 C.2     1  UNL1        0.2489
     34 O         143.0275  139.1933  166.9529 O.2     1  UNL1       -0.2699
     35 N         141.2105  140.6125  168.3055 N.am    1  UNL1       -0.2736
     36 C         140.3561  141.8071  168.0004 C.3     1  UNL1        0.1205
     37 C         141.2372  139.8550  169.5999 C.3     1  UNL1        0.0761
     38 C         140.0447  139.8819  170.5094 C.3     1  UNL1        0.0215
     39 C         142.4566  139.0707  169.9849 C.3     1  UNL1        0.0215
@<TRIPOS>BOND
     1    10    11    1
     2    11    12   ar
     3    12    13   ar
     4    13    14   ar
     5    14    15   ar
     6    15     4    1
     7     4     5   ar
     8     5     6   ar
     9     6     7   ar
    10     7     3    1
    11     3     2    1
    12     2     1    1
    13     1    21    1
    14    21    22    1
    15    22    23    1
    16    23    24    1
    17    24    25    1
    18    25    26   ar
    19    26    27   ar
    20    27    28   ar
    21    28    29   ar
    22    29    30   ar
    23    30    31    1
    24    31    32    1
    25    28    33    1
    26    33    34    2
    27    33    35   am
    28    35    37    1
    29    37    38    1
    30    37    39    1
    31    35    36    1
    32     7     8   ar
    33     8     9    1
    34    15    16   ar
    35    16    17   ar
    36    17    18   ar
    37    18    19   ar
    38    19    20   ar
    39    20    11   ar
    40    19    14   ar
    41     8     4   ar
    42    32    22    1
    43    30    25   ar
    44    36    27    1
@<TRIPOS>MOLECULE
*****
 39 44 0 0 0
SMALL
GASTEIGER

@<TRIPOS>ATOM
      1 C         140.9438  145.4993  159.3667 C.3     1  UNL1        0.0294
      2 C         140.2317  144.7490  158.2804 C.3     1  UNL1        0.0666
      3 S         140.4115  143.2654  158.1517 S.3     1  UNL1       -0.0756
      4 C         140.6824  141.2368  161.4497 C.ar    1  UNL1        0.1669
      5 N         142.0910  141.1524  160.9410 N.ar    1  UNL1       -0.1282
      6 N         142.1609  141.9021  159.6436 N.ar    1  UNL1       -0.1221
      7 C         140.7956  142.4498  159.3506 C.ar    1  UNL1        0.1932
      8 N         139.8819  142.0386  160.4668 N.ar    1  UNL1       -0.2884
      9 C         138.4235  142.3709  160.5802 C.3     1  UNL1        0.1340
     10 C         143.9530  137.9341  166.5139 C.3     1  UNL1        0.0521
     11 C         143.0061  138.6073  165.5651 C.ar    1  UNL1        0.0593
     12 C         143.5232  139.2175  164.2962 C.ar    1  UNL1        0.0147
     13 C         142.5763  139.8906  163.3474 C.ar    1  UNL1        0.0028
     14 C         141.1122  139.9535  163.6674 C.ar    1  UNL1        0.0206
     15 C         140.1652  140.6266  162.7186 C.ar    1  UNL1        0.0374
     16 C         138.7012  140.6894  163.0387 C.ar    1  UNL1        0.0031
     17 C         138.1840  140.0791  164.3076 C.ar    1  UNL1        0.0016
     18 C         139.1309  139.4060  165.2564 C.ar    1  UNL1        0.0191
     19 C         140.5950  139.3432  164.9363 C.ar    1  UNL1        0.0810
     20 N         141.5419  138.6701  165.8852 N.ar    1  UNL1       -0.2497
     21 C         140.2154  145.8683  160.6249 C.3     1  UNL1        0.0730
     22 N         140.4928  145.1247  161.8977 N.3     1  UNL1       -0.2720
     23 C         141.9175  144.7053  162.1091 C.3     1  UNL1        0.0768
     24 C         142.5101  143.9564  163.2659 C.3     1  UNL1        0.0433
     25 C         141.8246  143.4420  164.4967 C.ar    1  UNL1       -0.0250
     26 C         142.7887  142.7443  165.4099 C.ar    1  UNL1       -0.0070
     27 C         142.3052  142.1539  166.7013 C.ar    1  UNL1        0.0017
     28 C         140.8577  142.2613  167.0797 C.ar    1  UNL1        0.0509
     29 C         139.8936  142.9590  166.1666 C.ar    1  UNL1       -0.0003
     30 C         140.3770  143.5493  164.8751 C.ar    1  UNL1       -0.0246
     31 C         139.2576  144.1977  164.1159 C.3     1  UNL1        0.0433
     32 C         139.3092  144.8988  162.7908 C.3     1  UNL1        0.0768
     33 C         140.6743  141.5873  168.4071 C.2     1  UNL1        0.2489
     34 O         139.3833  141.4596  169.1602 O.2     1  UNL1       -0.2699
     35 N         142.0084  141.0633  168.8491 N.am    1  UNL1       -0.2736
     36 C         143.0164  141.4135  167.7949 C.3     1  UNL1        0.1205
     37 C         142.2860  140.3197  170.1219 C.3     1  UNL1        0.0761
     38 C         142.2420  141.0405  171.4366 C.3     1  UNL1        0.0215
     39 C         142.6076  138.8551  170.0799 C.3     1  UNL1        0.0215
@<TRIPOS>BOND
     1    10    11    1
     2    11    12   ar
     3    12    13   ar
     4    13    14   ar
     5    14    15   ar
     6    15     4    1
     7     4     5   ar
     8     5     6   ar
     9     6     7   ar
    10     7     3    1
    11     3     2    1
    12     2     1    1
    13     1    21    1
    14    21    22    1
    15    22    23    1
    16    23    24    1
    17    24    25    1
    18    25    26   ar
    19    26    27   ar
    20    27    28   ar
    21    28    29   ar
    22    29    30   ar
    23    30    31    1
    24    31    32    1
    25    28    33    1
    26    33    34    2
    27    33    35   am
    28    35    37    1
    29    37    38    1
    30    37    39    1
    31    35    36    1
    32     7     8   ar
    33     8     9    1
    34    15    16   ar
    35    16    17   ar
    36    17    18   ar
    37    18    19   ar
    38    19    20   ar
    39    20    11   ar
    40    19    14   ar
    41     8     4   ar
    42    32    22    1
    43    30    25   ar
    44    36    27    1
@<TRIPOS>MOLECULE
*****
 39 44 0 0 0
SMALL
GASTEIGER

@<TRIPOS>ATOM
      1 C         143.2545  142.6967  158.2462 C.3     1  UNL1        0.0294
      2 C         143.3802  141.7797  157.0658 C.3     1  UNL1        0.0666
      3 S         142.5675  140.5204  157.0044 S.3     1  UNL1       -0.0756
      4 C         141.5934  138.6791  160.2795 C.ar    1  UNL1        0.1669
      5 N         142.8599  137.9647  159.9110 N.ar    1  UNL1       -0.1282
      6 N         143.3789  138.5675  158.6393 N.ar    1  UNL1       -0.1221
      7 C         142.4332  139.6545  158.2218 C.ar    1  UNL1        0.1932
      8 N         141.3299  139.7234  159.2355 N.ar    1  UNL1       -0.2884
      9 C         140.1669  140.6705  159.2098 C.3     1  UNL1        0.1340
     10 C         143.0989  138.7643  166.9860 C.3     1  UNL1        0.0521
     11 C         142.5094  138.6729  165.6097 C.ar    1  UNL1        0.0593
     12 C         143.3623  138.9535  164.4082 C.ar    1  UNL1        0.0147
     13 C         142.7727  138.8620  163.0320 C.ar    1  UNL1        0.0028
     14 C         141.3301  138.4900  162.8573 C.ar    1  UNL1        0.0206
     15 C         140.7405  138.3985  161.4810 C.ar    1  UNL1        0.0374
     16 C         139.2980  138.0265  161.3064 C.ar    1  UNL1        0.0031
     17 C         138.4450  137.7458  162.5079 C.ar    1  UNL1        0.0016
     18 C         139.0345  137.8373  163.8840 C.ar    1  UNL1        0.0191
     19 C         140.4771  138.2093  164.0588 C.ar    1  UNL1        0.0810
     20 N         141.0667  138.3008  165.4351 N.ar    1  UNL1       -0.2497
     21 C         144.2728  142.6469  159.3464 C.3     1  UNL1        0.0730
     22 N         143.8283  142.5782  160.7774 N.3     1  UNL1       -0.2720
     23 C         142.3599  142.3600  160.9929 C.3     1  UNL1        0.0768
     24 C         141.6115  142.2465  162.2879 C.3     1  UNL1        0.0433
     25 C         142.1465  142.3232  163.6871 C.ar    1  UNL1       -0.0250
     26 C         141.0536  142.1592  164.7014 C.ar    1  UNL1       -0.0070
     27 C         141.3764  142.2042  166.1656 C.ar    1  UNL1        0.0017
     28 C         142.7920  142.4133  166.6155 C.ar    1  UNL1        0.0509
     29 C         143.8848  142.5773  165.6011 C.ar    1  UNL1       -0.0003
     30 C         143.5621  142.5323  164.1370 C.ar    1  UNL1       -0.0246
     31 C         144.7923  142.7163  163.2987 C.3     1  UNL1        0.0433
     32 C         144.9107  142.7367  161.8035 C.3     1  UNL1        0.0768
     33 C         142.8066  142.4126  168.1154 C.2     1  UNL1        0.2489
     34 O         144.0156  142.5902  168.9854 O.2     1  UNL1       -0.2699
     35 N         141.4001  142.2031  168.5925 N.am    1  UNL1       -0.2736
     36 C         140.5162  142.0743  167.3875 C.3     1  UNL1        0.1205
     37 C         140.9554  142.1344  170.0235 C.3     1  UNL1        0.0761
     38 C         139.8781  143.0529  170.5191 C.3     1  UNL1        0.0215
     39 C         141.5882  141.1470  170.9589 C.3     1  UNL1        0.0215
@<TRIPOS>BOND
     1    10    11    1
     2    11    12   ar
     3    12    13   ar
     4    13    14   ar
     5    14    15   ar
     6    15     4    1
     7     4     5   ar
     8     5     6   ar
     9     6     7   ar
    10     7     3    1
    11     3     2    1
    12     2     1    1
    13     1    21    1
    14    21    22    1
    15    22    23    1
    16    23    24    1
    17    24    25    1
    18    25    26   ar
    19    26    27   ar
    20    27    28   ar
    21    28    29   ar
    22    29    30   ar
    23    30    31    1
    24    31    32    1
    25    28    33    1
    26    33    34    2
    27    33    35   am
    28    35    37    1
    29    37    38    1
    30    37    39    1
    31    35    36    1
    32     7     8   ar
    33     8     9    1
    34    15    16   ar
    35    16    17   ar
    36    17    18   ar
    37    18    19   ar
    38    19    20   ar
    39    20    11   ar
    40    19    14   ar
    41     8     4   ar
    42    32    22    1
    43    30    25   ar
    44    36    27    1
@<TRIPOS>MOLECULE
*****
 39 44 0 0 0
SMALL
GASTEIGER

@<TRIPOS>ATOM
      1 C         143.9288  141.9958  157.7770 C.3     1  UNL1        0.0294
      2 C         142.9896  142.9550  157.1075 C.3     1  UNL1        0.0666
      3 S         141.5226  142.9073  157.4165 S.3     1  UNL1       -0.0756
      4 C         140.4858  142.2775  161.1035 C.ar    1  UNL1        0.1669
      5 N         140.1732  140.9479  160.4833 N.ar    1  UNL1       -0.1282
      6 N         140.5236  141.0220  159.0268 N.ar    1  UNL1       -0.1221
      7 C         141.0527  142.3974  158.7467 C.ar    1  UNL1        0.1932
      8 N         141.0293  143.1732  160.0302 N.ar    1  UNL1       -0.2884
      9 C         141.4718  144.5953  160.2090 C.3     1  UNL1        0.1340
     10 C         138.1172  138.6020  166.4074 C.3     1  UNL1        0.0521
     11 C         138.6602  139.6131  165.4416 C.ar    1  UNL1        0.0593
     12 C         138.8567  139.2441  164.0010 C.ar    1  UNL1        0.0147
     13 C         139.3997  140.2553  163.0352 C.ar    1  UNL1        0.0028
     14 C         139.7463  141.6353  163.5099 C.ar    1  UNL1        0.0206
     15 C         140.2893  142.6464  162.5440 C.ar    1  UNL1        0.0374
     16 C         140.6358  144.0264  163.0189 C.ar    1  UNL1        0.0031
     17 C         140.4394  144.3954  164.4595 C.ar    1  UNL1        0.0016
     18 C         139.8964  143.3843  165.4252 C.ar    1  UNL1        0.0191
     19 C         139.5498  142.0043  164.9505 C.ar    1  UNL1        0.0810
     20 N         139.0068  140.9932  165.9164 N.ar    1  UNL1       -0.2497
     21 C         144.7577  142.4480  158.9425 C.3     1  UNL1        0.0730
     22 N         144.3570  142.0725  160.3383 N.3     1  UNL1       -0.2720
     23 C         143.8520  140.6711  160.5157 C.3     1  UNL1        0.0768
     24 C         143.3796  139.9991  161.7709 C.3     1  UNL1        0.0433
     25 C         143.2956  140.5624  163.1584 C.ar    1  UNL1       -0.0250
     26 C         142.7648  139.5499  164.1297 C.ar    1  UNL1       -0.0070
     27 C         142.6016  139.9118  165.5762 C.ar    1  UNL1        0.0017
     28 C         142.9692  141.2862  166.0515 C.ar    1  UNL1        0.0509
     29 C         143.5000  142.2987  165.0803 C.ar    1  UNL1       -0.0003
     30 C         143.6631  141.9368  163.6338 C.ar    1  UNL1       -0.0246
     31 C         144.2056  143.0874  162.8389 C.3     1  UNL1        0.0433
     32 C         144.5143  143.1477  161.3722 C.3     1  UNL1        0.0768
     33 C         142.7017  141.3537  167.5259 C.2     1  UNL1        0.2489
     34 O         142.9275  142.5448  168.4093 O.2     1  UNL1       -0.2699
     35 N         142.1689  140.0211  167.9618 N.am    1  UNL1       -0.2736
     36 C         142.1070  139.1299  166.7568 C.3     1  UNL1        0.1205
     37 C         141.7682  139.6454  169.3577 C.3     1  UNL1        0.0761
     38 C         142.6282  138.7144  170.1600 C.3     1  UNL1        0.0215
     39 C         140.5075  140.2009  169.9512 C.3     1  UNL1        0.0215
@<TRIPOS>BOND
     1    10    11    1
     2    11    12   ar
     3    12    13   ar
     4    13    14   ar
     5    14    15   ar
     6    15     4    1
     7     4     5   ar
     8     5     6   ar
     9     6     7   ar
    10     7     3    1
    11     3     2    1
    12     2     1    1
    13     1    21    1
    14    21    22    1
    15    22    23    1
    16    23    24    1
    17    24    25    1
    18    25    26   ar
    19    26    27   ar
    20    27    28   ar
    21    28    29   ar
    22    29    30   ar
    23    30    31    1
    24    31    32    1
    25    28    33    1
    26    33    34    2
    27    33    35   am
    28    35    37    1
    29    37    38    1
    30    37    39    1
    31    35    36    1
    32     7     8   ar
    33     8     9    1
    34    15    16   ar
    35    16    17   ar
    36    17    18   ar
    37    18    19   ar
    38    19    20   ar
    39    20    11   ar
    40    19    14   ar
    41     8     4   ar
    42    32    22    1
    43    30    25   ar
    44    36    27    1
@<TRIPOS>MOLECULE
*****
 39 44 0 0 0
SMALL
GASTEIGER

@<TRIPOS>ATOM
      1 C         141.0427  144.5605  157.4606 C.3     1  UNL1        0.0294
      2 C         139.5930  144.3237  157.1567 C.3     1  UNL1        0.0666
      3 S         138.9560  143.0136  157.5142 S.3     1  UNL1       -0.0756
      4 C         139.7887  141.2362  160.8629 C.ar    1  UNL1        0.1669
      5 N         138.6480  142.1175  161.2782 N.ar    1  UNL1       -0.1282
      6 N         138.1973  142.8904  160.0743 N.ar    1  UNL1       -0.1221
      7 C         139.0594  142.4870  158.9150 C.ar    1  UNL1        0.1932
      8 N         140.0428  141.4647  159.4024 N.ar    1  UNL1       -0.2884
      9 C         141.0958  140.7893  158.5745 C.3     1  UNL1        0.1340
     10 C         138.8433  139.5415  167.4572 C.3     1  UNL1        0.0521
     11 C         139.2681  139.7293  166.0309 C.ar    1  UNL1        0.0593
     12 C         138.5141  140.6732  165.1418 C.ar    1  UNL1        0.0147
     13 C         138.9390  140.8608  163.7155 C.ar    1  UNL1        0.0028
     14 C         140.1178  140.1047  163.1783 C.ar    1  UNL1        0.0206
     15 C         140.5426  140.2924  161.7520 C.ar    1  UNL1        0.0374
     16 C         141.7215  139.5362  161.2149 C.ar    1  UNL1        0.0031
     17 C         142.4755  138.5924  162.1041 C.ar    1  UNL1        0.0016
     18 C         142.0507  138.4047  163.5302 C.ar    1  UNL1        0.0191
     19 C         140.8719  139.1608  164.0674 C.ar    1  UNL1        0.0810
     20 N         140.4470  138.9731  165.4938 N.ar    1  UNL1       -0.2497
     21 C         141.4340  145.4141  158.6304 C.3     1  UNL1        0.0730
     22 N         141.5985  144.7968  159.9875 N.3     1  UNL1       -0.2720
     23 C         142.7019  143.7885  160.1144 C.3     1  UNL1        0.0768
     24 C         143.1173  143.0038  161.3235 C.3     1  UNL1        0.0433
     25 C         142.5319  143.0336  162.7041 C.ar    1  UNL1       -0.0250
     26 C         143.2471  142.0881  163.6231 C.ar    1  UNL1       -0.0070
     27 C         142.8170  141.9643  165.0548 C.ar    1  UNL1        0.0017
     28 C         141.6716  142.7861  165.5675 C.ar    1  UNL1        0.0509
     29 C         140.9564  143.7316  164.6485 C.ar    1  UNL1       -0.0003
     30 C         141.3865  143.8553  163.2169 C.ar    1  UNL1       -0.0246
     31 C         140.5437  144.8503  162.4755 C.3     1  UNL1        0.0433
     32 C         140.6381  145.2693  161.0383 C.3     1  UNL1        0.0768
     33 C         141.4742  142.4529  167.0166 C.2     1  UNL1        0.2489
     34 O         140.4357  143.0437  167.9236 O.2     1  UNL1       -0.2699
     35 N         142.4975  141.4253  167.3996 N.am    1  UNL1       -0.2736
     36 C         143.3274  141.1233  166.1871 C.3     1  UNL1        0.1205
     37 C         142.6622  140.8079  168.7567 C.3     1  UNL1        0.0761
     38 C         142.1137  139.4387  169.0294 C.3     1  UNL1        0.0215
     39 C         143.3754  141.5599  169.8411 C.3     1  UNL1        0.0215
@<TRIPOS>BOND
     1    10    11    1
     2    11    12   ar
     3    12    13   ar
     4    13    14   ar
     5    14    15   ar
     6    15     4    1
     7     4     5   ar
     8     5     6   ar
     9     6     7   ar
    10     7     3    1
    11     3     2    1
    12     2     1    1
    13     1    21    1
    14    21    22    1
    15    22    23    1
    16    23    24    1
    17    24    25    1
    18    25    26   ar
    19    26    27   ar
    20    27    28   ar
    21    28    29   ar
    22    29    30   ar
    23    30    31    1
    24    31    32    1
    25    28    33    1
    26    33    34    2
    27    33    35   am
    28    35    37    1
    29    37    38    1
    30    37    39    1
    31    35    36    1
    32     7     8   ar
    33     8     9    1
    34    15    16   ar
    35    16    17   ar
    36    17    18   ar
    37    18    19   ar
    38    19    20   ar
    39    20    11   ar
    40    19    14   ar
    41     8     4   ar
    42    32    22    1
    43    30    25   ar
    44    36    27    1
@<TRIPOS>MOLECULE
*****
 39 44 0 0 0
SMALL
GASTEIGER

@<TRIPOS>ATOM
      1 C         141.4098  145.3510  158.7988 C.3     1  UNL1        0.0294
      2 C         141.8582  144.5198  157.6334 C.3     1  UNL1        0.0666
      3 S         142.9422  143.4988  157.8133 S.3     1  UNL1       -0.0756
      4 C         142.3799  141.0079  160.7365 C.ar    1  UNL1        0.1669
      5 N         143.6603  141.6659  161.1585 N.ar    1  UNL1       -0.1282
      6 N         144.0266  142.6790  160.1148 N.ar    1  UNL1       -0.1221
      7 C         142.9728  142.6472  159.0478 C.ar    1  UNL1        0.1932
      8 N         141.9552  141.6144  159.4320 N.ar    1  UNL1       -0.2884
      9 C         140.7281  141.2518  158.6492 C.3     1  UNL1        0.1340
     10 C         143.7123  138.0661  166.8045 C.3     1  UNL1        0.0521
     11 C         143.1973  138.5326  165.4752 C.ar    1  UNL1        0.0593
     12 C         143.9250  139.6083  164.7245 C.ar    1  UNL1        0.0147
     13 C         143.4100  140.0748  163.3952 C.ar    1  UNL1        0.0028
     14 C         142.1673  139.4657  162.8165 C.ar    1  UNL1        0.0206
     15 C         141.6523  139.9323  161.4871 C.ar    1  UNL1        0.0374
     16 C         140.4097  139.3232  160.9086 C.ar    1  UNL1        0.0031
     17 C         139.6820  138.2476  161.6593 C.ar    1  UNL1        0.0016
     18 C         140.1970  137.7810  162.9885 C.ar    1  UNL1        0.0191
     19 C         141.4396  138.3901  163.5672 C.ar    1  UNL1        0.0810
     20 N         141.9546  137.9235  164.8965 N.ar    1  UNL1       -0.2497
     21 C         140.1846  144.9607  159.5710 C.3     1  UNL1        0.0730
     22 N         140.3212  144.2832  160.9023 N.3     1  UNL1       -0.2720
     23 C         139.2586  143.2773  161.2327 C.3     1  UNL1        0.0768
     24 C         139.1147  142.4409  162.4696 C.3     1  UNL1        0.0433
     25 C         139.9978  142.4038  163.6814 C.ar    1  UNL1       -0.0250
     26 C         139.4935  141.4220  164.6972 C.ar    1  UNL1       -0.0070
     27 C         140.2343  141.2303  165.9873 C.ar    1  UNL1        0.0017
     28 C         141.4795  142.0204  166.2617 C.ar    1  UNL1        0.0509
     29 C         141.9838  143.0023  165.2460 C.ar    1  UNL1       -0.0003
     30 C         141.2429  143.1939  163.9559 C.ar    1  UNL1       -0.0246
     31 C         141.9125  144.2163  163.0861 C.3     1  UNL1        0.0433
     32 C         141.5022  144.7010  161.7271 C.3     1  UNL1        0.0768
     33 C         141.9942  141.6202  167.6126 C.2     1  UNL1        0.2489
     34 O         143.2206  142.1623  168.2849 O.2     1  UNL1       -0.2699
     35 N         141.0671  140.5828  168.1731 N.am    1  UNL1       -0.2736
     36 C         139.9795  140.3418  167.1686 C.3     1  UNL1        0.1205
     37 C         141.2037  139.9052  169.5044 C.3     1  UNL1        0.0761
     38 C         140.1303  140.0634  170.5401 C.3     1  UNL1        0.0215
     39 C         142.4137  139.0693  169.7999 C.3     1  UNL1        0.0215
@<TRIPOS>BOND
     1    10    11    1
     2    11    12   ar
     3    12    13   ar
     4    13    14   ar
     5    14    15   ar
     6    15     4    1
     7     4     5   ar
     8     5     6   ar
     9     6     7   ar
    10     7     3    1
    11     3     2    1
    12     2     1    1
    13     1    21    1
    14    21    22    1
    15    22    23    1
    16    23    24    1
    17    24    25    1
    18    25    26   ar
    19    26    27   ar
    20    27    28   ar
    21    28    29   ar
    22    29    30   ar
    23    30    31    1
    24    31    32    1
    25    28    33    1
    26    33    34    2
    27    33    35   am
    28    35    37    1
    29    37    38    1
    30    37    39    1
    31    35    36    1
    32     7     8   ar
    33     8     9    1
    34    15    16   ar
    35    16    17   ar
    36    17    18   ar
    37    18    19   ar
    38    19    20   ar
    39    20    11   ar
    40    19    14   ar
    41     8     4   ar
    42    32    22    1
    43    30    25   ar
    44    36    27    1
@<TRIPOS>MOLECULE
*****
 39 44 0 0 0
SMALL
GASTEIGER

@<TRIPOS>ATOM
      1 C         142.3625  141.6330  170.9088 C.3     1  UNL1        0.0294
      2 C         141.0077  141.1150  171.2917 C.3     1  UNL1        0.0666
      3 S         140.5057  139.8265  170.7106 S.3     1  UNL1       -0.0756
      4 C         140.4249  139.4805  166.8455 C.ar    1  UNL1        0.1669
      5 N         138.9746  139.7190  167.1455 N.ar    1  UNL1       -0.1282
      6 N         138.8285  139.8777  168.6299 N.ar    1  UNL1       -0.1221
      7 C         140.1883  139.7372  169.2473 C.ar    1  UNL1        0.1932
      8 N         141.1749  139.4917  168.1444 N.ar    1  UNL1       -0.2884
      9 C         142.6522  139.2925  168.3113 C.3     1  UNL1        0.1340
     10 C         137.5757  139.7381  160.5952 C.3     1  UNL1        0.0521
     11 C         138.4368  139.6206  161.8177 C.ar    1  UNL1        0.0593
     12 C         137.8413  139.8331  163.1780 C.ar    1  UNL1        0.0147
     13 C         138.7025  139.7155  164.4004 C.ar    1  UNL1        0.0028
     14 C         140.1592  139.3855  164.2628 C.ar    1  UNL1        0.0206
     15 C         141.0204  139.2680  165.4853 C.ar    1  UNL1        0.0374
     16 C         142.4772  138.9380  165.3476 C.ar    1  UNL1        0.0031
     17 C         143.0727  138.7256  163.9874 C.ar    1  UNL1        0.0016
     18 C         142.2116  138.8431  162.7649 C.ar    1  UNL1        0.0191
     19 C         140.7548  139.1731  162.9026 C.ar    1  UNL1        0.0810
     20 N         139.8936  139.2906  161.6800 N.ar    1  UNL1       -0.2497
     21 C         142.4833  142.8871  170.0949 C.3     1  UNL1        0.0730
     22 N         142.1628  142.8642  168.6297 N.3     1  UNL1       -0.2720
     23 C         143.3173  142.5788  167.7154 C.3     1  UNL1        0.0768
     24 C         143.3244  142.4884  166.2181 C.3     1  UNL1        0.0433
     25 C         142.1788  142.6610  165.2654 C.ar    1  UNL1       -0.0250
     26 C         142.6191  142.4883  163.8419 C.ar    1  UNL1       -0.0070
     27 C         141.6239  142.6212  162.7276 C.ar    1  UNL1        0.0017
     28 C         140.1882  142.9268  163.0367 C.ar    1  UNL1        0.0509
     29 C         139.7479  143.0995  164.4602 C.ar    1  UNL1       -0.0003
     30 C         140.7432  142.9666  165.5745 C.ar    1  UNL1       -0.0246
     31 C         140.0986  143.1751  166.9128 C.3     1  UNL1        0.0433
     32 C         140.7304  143.1295  168.2725 C.3     1  UNL1        0.0768
     33 C         139.4399  142.9994  161.7388 C.2     1  UNL1        0.2489
     34 O         137.9755  143.2830  161.5800 O.2     1  UNL1       -0.2699
     35 N         140.4129  142.7387  160.6275 N.am    1  UNL1       -0.2736
     36 C         141.7627  142.5049  161.2386 C.3     1  UNL1        0.1205
     37 C         140.0926  142.7157  159.1622 C.3     1  UNL1        0.0761
     38 C         139.9214  141.4054  158.4523 C.3     1  UNL1        0.0215
     39 C         139.9434  144.0031  158.4069 C.3     1  UNL1        0.0215
@<TRIPOS>BOND
     1    10    11    1
     2    11    12   ar
     3    12    13   ar
     4    13    14   ar
     5    14    15   ar
     6    15     4    1
     7     4     5   ar
     8     5     6   ar
     9     6     7   ar
    10     7     3    1
    11     3     2    1
    12     2     1    1
    13     1    21    1
    14    21    22    1
    15    22    23    1
    16    23    24    1
    17    24    25    1
    18    25    26   ar
    19    26    27   ar
    20    27    28   ar
    21    28    29   ar
    22    29    30   ar
    23    30    31    1
    24    31    32    1
    25    28    33    1
    26    33    34    2
    27    33    35   am
    28    35    37    1
    29    37    38    1
    30    37    39    1
    31    35    36    1
    32     7     8   ar
    33     8     9    1
    34    15    16   ar
    35    16    17   ar
    36    17    18   ar
    37    18    19   ar
    38    19    20   ar
    39    20    11   ar
    40    19    14   ar
    41     8     4   ar
    42    32    22    1
    43    30    25   ar
    44    36    27    1
@<TRIPOS>MOLECULE
*****
 39 44 0 0 0
SMALL
GASTEIGER

@<TRIPOS>ATOM
      1 C         142.0524  139.0957  157.7352 C.3     1  UNL1        0.0294
      2 C         140.7167  138.4457  157.5264 C.3     1  UNL1        0.0666
      3 S         139.4925  139.0226  158.1732 S.3     1  UNL1       -0.0756
      4 C         139.5694  140.4058  161.7990 C.ar    1  UNL1        0.1669
      5 N         139.3302  138.9464  162.0504 N.ar    1  UNL1       -0.1282
      6 N         139.2723  138.2507  160.7228 N.ar    1  UNL1       -0.1221
      7 C         139.4757  139.2801  159.6508 C.ar    1  UNL1        0.1932
      8 N         139.6593  140.6119  160.3160 N.ar    1  UNL1       -0.2884
      9 C         139.8920  141.9203  159.6202 C.3     1  UNL1        0.1340
     10 C         139.3942  140.0161  168.6596 C.3     1  UNL1        0.0521
     11 C         139.4697  140.3800  167.2063 C.ar    1  UNL1        0.0593
     12 C         139.3427  139.3140  166.1587 C.ar    1  UNL1        0.0147
     13 C         139.4183  139.6780  164.7055 C.ar    1  UNL1        0.0028
     14 C         139.6209  141.1078  164.2999 C.ar    1  UNL1        0.0206
     15 C         139.6964  141.4717  162.8466 C.ar    1  UNL1        0.0374
     16 C         139.8990  142.9015  162.4411 C.ar    1  UNL1        0.0031
     17 C         140.0260  143.9675  163.4888 C.ar    1  UNL1        0.0016
     18 C         139.9504  143.6036  164.9419 C.ar    1  UNL1        0.0191
     19 C         139.7478  142.1738  165.3475 C.ar    1  UNL1        0.0810
     20 N         139.6723  141.8099  166.8008 N.ar    1  UNL1       -0.2497
     21 C         143.0172  138.5239  158.7312 C.3     1  UNL1        0.0730
     22 N         143.0329  139.0376  160.1404 N.3     1  UNL1       -0.2720
     23 C         143.1864  140.5222  160.2902 C.3     1  UNL1        0.0768
     24 C         143.2379  141.3347  161.5501 C.3     1  UNL1        0.0433
     25 C         143.1487  140.8633  162.9712 C.ar    1  UNL1       -0.0250
     26 C         143.2437  142.0084  163.9355 C.ar    1  UNL1       -0.0070
     27 C         143.1759  141.7532  165.4120 C.ar    1  UNL1        0.0017
     28 C         143.0132  140.3528  165.9245 C.ar    1  UNL1        0.0509
     29 C         142.9182  139.2077  164.9602 C.ar    1  UNL1       -0.0003
     30 C         142.9860  139.4629  163.4836 C.ar    1  UNL1       -0.0246
     31 C         142.8722  138.1881  162.7013 C.3     1  UNL1        0.0433
     32 C         142.8931  137.9989  161.2134 C.3     1  UNL1        0.0768
     33 C         142.9778  140.4087  167.4229 C.2     1  UNL1        0.2489
     34 O         142.8279  139.2356  168.3457 O.2     1  UNL1       -0.2699
     35 N         143.1187  141.8435  167.8367 N.am    1  UNL1       -0.2736
     36 C         143.2412  142.6745  166.5939 C.3     1  UNL1        0.1205
     37 C         143.1344  142.3573  169.2459 C.3     1  UNL1        0.0761
     38 C         144.4368  142.5096  169.9743 C.3     1  UNL1        0.0215
     39 C         141.8476  142.7190  169.9267 C.3     1  UNL1        0.0215
@<TRIPOS>BOND
     1    10    11    1
     2    11    12   ar
     3    12    13   ar
     4    13    14   ar
     5    14    15   ar
     6    15     4    1
     7     4     5   ar
     8     5     6   ar
     9     6     7   ar
    10     7     3    1
    11     3     2    1
    12     2     1    1
    13     1    21    1
    14    21    22    1
    15    22    23    1
    16    23    24    1
    17    24    25    1
    18    25    26   ar
    19    26    27   ar
    20    27    28   ar
    21    28    29   ar
    22    29    30   ar
    23    30    31    1
    24    31    32    1
    25    28    33    1
    26    33    34    2
    27    33    35   am
    28    35    37    1
    29    37    38    1
    30    37    39    1
    31    35    36    1
    32     7     8   ar
    33     8     9    1
    34    15    16   ar
    35    16    17   ar
    36    17    18   ar
    37    18    19   ar
    38    19    20   ar
    39    20    11   ar
    40    19    14   ar
    41     8     4   ar
    42    32    22    1
    43    30    25   ar
    44    36    27    1
@<TRIPOS>MOLECULE
*****
 39 44 0 0 0
SMALL
GASTEIGER

@<TRIPOS>ATOM
      1 C         139.6637  139.5525  157.4031 C.3     1  UNL1        0.0294
      2 C         138.3538  140.2660  157.5622 C.3     1  UNL1        0.0666
      3 S         138.2896  141.7574  157.4157 S.3     1  UNL1       -0.0756
      4 C         139.2758  143.5491  160.7146 C.ar    1  UNL1        0.1669
      5 N         139.8993  144.4555  159.6949 N.ar    1  UNL1       -0.1282
      6 N         139.6057  143.8946  158.3350 N.ar    1  UNL1       -0.1221
      7 C         138.8008  142.6416  158.5143 C.ar    1  UNL1        0.1932
      8 N         138.5969  142.4281  159.9849 N.ar    1  UNL1       -0.2884
      9 C         137.8459  141.2929  160.6152 C.3     1  UNL1        0.1340
     10 C         144.5354  143.2019  165.1267 C.3     1  UNL1        0.0521
     11 C         143.2323  143.3343  164.3956 C.ar    1  UNL1        0.0593
     12 C         143.1852  143.1517  162.9075 C.ar    1  UNL1        0.0147
     13 C         141.8820  143.2842  162.1766 C.ar    1  UNL1        0.0028
     14 C         140.6260  143.5992  162.9337 C.ar    1  UNL1        0.0206
     15 C         139.3229  143.7317  162.2026 C.ar    1  UNL1        0.0374
     16 C         138.0669  144.0468  162.9598 C.ar    1  UNL1        0.0031
     17 C         138.1141  144.2294  164.4479 C.ar    1  UNL1        0.0016
     18 C         139.4171  144.0969  165.1788 C.ar    1  UNL1        0.0191
     19 C         140.6731  143.7818  164.4218 C.ar    1  UNL1        0.0810
     20 N         141.9762  143.6494  165.1528 N.ar    1  UNL1       -0.2497
     21 C         140.0294  138.4385  158.3386 C.3     1  UNL1        0.0730
     22 N         140.0333  138.6740  159.8200 N.3     1  UNL1       -0.2720
     23 C         141.1862  139.4751  160.3485 C.3     1  UNL1        0.0768
     24 C         141.4743  139.8774  161.7647 C.3     1  UNL1        0.0433
     25 C         140.6809  139.5778  163.0018 C.ar    1  UNL1       -0.0250
     26 C         141.3232  140.1697  164.2214 C.ar    1  UNL1       -0.0070
     27 C         140.6879  139.9858  165.5677 C.ar    1  UNL1        0.0017
     28 C         139.4103  139.2100  165.6945 C.ar    1  UNL1        0.0509
     29 C         138.7680  138.6182  164.4749 C.ar    1  UNL1       -0.0003
     30 C         139.4034  138.8021  163.1286 C.ar    1  UNL1       -0.0246
     31 C         138.6037  138.1343  162.0495 C.3     1  UNL1        0.0433
     32 C         138.8841  138.0773  160.5770 C.3     1  UNL1        0.0768
     33 C         139.0193  139.1943  167.1425 C.2     1  UNL1        0.2489
     34 O         137.8055  138.5293  167.7209 O.2     1  UNL1       -0.2699
     35 N         140.0552  139.9603  167.9107 N.am    1  UNL1       -0.2736
     36 C         141.0864  140.4494  166.9374 C.3     1  UNL1        0.1205
     37 C         140.0593  140.1958  169.3921 C.3     1  UNL1        0.0761
     38 C         138.8830  140.8542  170.0501 C.3     1  UNL1        0.0215
     39 C         141.2397  139.7730  170.2155 C.3     1  UNL1        0.0215
@<TRIPOS>BOND
     1    10    11    1
     2    11    12   ar
     3    12    13   ar
     4    13    14   ar
     5    14    15   ar
     6    15     4    1
     7     4     5   ar
     8     5     6   ar
     9     6     7   ar
    10     7     3    1
    11     3     2    1
    12     2     1    1
    13     1    21    1
    14    21    22    1
    15    22    23    1
    16    23    24    1
    17    24    25    1
    18    25    26   ar
    19    26    27   ar
    20    27    28   ar
    21    28    29   ar
    22    29    30   ar
    23    30    31    1
    24    31    32    1
    25    28    33    1
    26    33    34    2
    27    33    35   am
    28    35    37    1
    29    37    38    1
    30    37    39    1
    31    35    36    1
    32     7     8   ar
    33     8     9    1
    34    15    16   ar
    35    16    17   ar
    36    17    18   ar
    37    18    19   ar
    38    19    20   ar
    39    20    11   ar
    40    19    14   ar
    41     8     4   ar
    42    32    22    1
    43    30    25   ar
    44    36    27    1
