@<TRIPOS>MOLECULE
*****
 36 40 0 0 0
SMALL
GASTEIGER

@<TRIPOS>ATOM
      1 C         140.2811  140.1252  160.1906 C.ar    1  UNL1        0.0659
      2 C         139.4946  138.8565  160.0438 C.ar    1  UNL1        0.0159
      3 C         138.9657  138.1570  161.2607 C.ar    1  UNL1        0.0014
      4 C         139.2232  138.7262  162.6244 C.ar    1  UNL1        0.0032
      5 C         138.6103  137.8764  163.6977 C.ar    1  UNL1        0.0016
      6 C         138.6326  138.0854  165.1830 C.ar    1  UNL1        0.0192
      7 C         139.2732  139.1959  165.9616 C.ar    1  UNL1        0.0844
      8 N         139.0582  139.0261  167.4364 N.ar    1  UNL1       -0.2437
      9 C         139.6198  140.0320  168.3969 C.ar    1  UNL1        0.0989
     10 C         140.3964  141.2078  167.8827 C.ar    1  UNL1        0.0223
     11 C         140.6115  141.3776  166.4080 C.ar    1  UNL1        0.0063
     12 C         140.0499  140.3716  165.4474 C.ar    1  UNL1        0.0566
     13 C         140.3777  140.7273  164.0275 C.ar    1  UNL1        0.1970
     14 O         141.1793  141.9810  163.8391 O.2     1  UNL1       -0.2865
     15 C         140.0098  139.9950  162.7712 C.ar    1  UNL1        0.0403
     16 C         140.5387  140.6945  161.5543 C.ar    1  UNL1        0.0191
     17 C         140.9581  142.2138  168.8432 C.ar    1  UNL1        0.0411
     18 C         140.2125  143.3651  169.4503 C.ar    1  UNL1        0.1217
     19 N         141.1575  144.1079  170.3475 N.ar    1  UNL1       -0.1676
     20 N         142.4872  143.4157  170.2950 N.ar    1  UNL1       -0.2473
     21 C         143.7233  143.8226  171.0412 C.3     1  UNL1        0.1538
     22 C         142.3640  142.2451  169.3653 C.ar    1  UNL1        0.0967
     23 N         140.8101  140.8248  158.9737 N.pl3   1  UNL1       -0.2052
     24 H         140.9626  140.3194  158.1426 H       1  UNL1        0.1748
     25 S         141.1069  142.2943  159.0229 S.O2    1  UNL1        0.1131
     26 O         142.5765  141.9963  159.0585 O.2     1  UNL1       -0.1379
     27 O         139.6372  142.5922  158.9873 O.2     1  UNL1       -0.1379
     28 C         142.1688  144.4122  157.9568 C.3     1  UNL1        0.1164
     29 N         141.4037  143.7638  159.0722 N.3     1  UNL1       -0.1388
     30 C         140.9354  144.5849  160.2368 C.3     1  UNL1        0.1292
     31 C         141.7812  144.6861  161.4715 C.3     1  UNL1        0.1625
     32 C         141.2200  145.3072  162.7162 C.3     1  UNL1        0.1731
     33 O         142.0658  145.4084  163.9509 O.3     1  UNL1       -0.3485
     34 C         143.4728  144.8885  163.9408 C.3     1  UNL1        0.1742
     35 C         144.0340  144.2673  162.6961 C.3     1  UNL1        0.1742
     36 O         143.1882  144.1662  161.4614 O.3     1  UNL1       -0.3495
@<TRIPOS>BOND
     1    28    29    1
     2    29    30    1
     3    31    30    1
     4    31    32    1
     5    32    33    1
     6    33    34    1
     7    34    35    1
     8    35    36    1
     9    29    25    1
    10    25    26    2
    11    25    27    2
    12    25    23    1
    13    23     1    1
    14     1     2   ar
    15     2     3   ar
    16     3     4   ar
    17     4     5   ar
    18     5     6   ar
    19     6     7   ar
    20     7     8   ar
    21     8     9   ar
    22     9    10   ar
    23    10    17    1
    24    17    18   ar
    25    18    19   ar
    26    19    20   ar
    27    20    21    1
    28    20    22   ar
    29    10    11   ar
    30    11    12   ar
    31    12    13   ar
    32    13    14    2
    33    13    15   ar
    34    15    16   ar
    35    36    31    1
    36    16     1   ar
    37    15     4   ar
    38    12     7   ar
    39    22    17   ar
    40    23    24    1
@<TRIPOS>MOLECULE
*****
 36 40 0 0 0
SMALL
GASTEIGER

@<TRIPOS>ATOM
      1 C         142.2631  144.0651  160.0873 C.ar    1  UNL1        0.0659
      2 C         142.9527  143.1523  159.1171 C.ar    1  UNL1        0.0159
      3 C         143.4971  141.8349  159.5840 C.ar    1  UNL1        0.0014
      4 C         143.3519  141.4303  161.0211 C.ar    1  UNL1        0.0032
      5 C         143.9620  140.0838  161.2756 C.ar    1  UNL1        0.0016
      6 C         144.0333  139.3176  162.5632 C.ar    1  UNL1        0.0192
      7 C         143.5119  139.7086  163.9142 C.ar    1  UNL1        0.0844
      8 N         143.7933  138.6489  164.9379 N.ar    1  UNL1       -0.2437
      9 C         143.3533  138.8430  166.3587 C.ar    1  UNL1        0.0989
     10 C         142.6320  140.0968  166.7558 C.ar    1  UNL1        0.0223
     11 C         142.3506  141.1565  165.7322 C.ar    1  UNL1        0.0063
     12 C         142.7906  140.9624  164.3114 C.ar    1  UNL1        0.0566
     13 C         142.4125  142.1349  163.4555 C.ar    1  UNL1        0.1970
     14 O         141.6889  143.2459  164.1568 O.2     1  UNL1       -0.2865
     15 C         142.6623  142.3430  161.9913 C.ar    1  UNL1        0.0403
     16 C         142.1179  143.6604  161.5244 C.ar    1  UNL1        0.0191
     17 C         142.1920  140.2909  168.1767 C.ar    1  UNL1        0.0411
     18 C         142.4138  139.3306  169.3075 C.ar    1  UNL1        0.1217
     19 N         141.8118  139.9257  170.5458 N.ar    1  UNL1       -0.1676
     20 N         141.2180  141.2538  170.1804 N.ar    1  UNL1       -0.2473
     21 C         140.5130  142.1916  171.1151 C.3     1  UNL1        0.1538
     22 C         141.4530  141.4795  168.7162 C.ar    1  UNL1        0.0967
     23 N         141.7187  145.3826  159.6204 N.pl3   1  UNL1       -0.2052
     24 H         141.6425  146.1349  160.2508 H       1  UNL1        0.1748
     25 S         141.2904  145.5537  158.1931 S.O2    1  UNL1        0.1131
     26 O         142.5702  146.2774  157.8959 O.2     1  UNL1       -0.1379
     27 O         140.0106  144.8300  158.4903 O.2     1  UNL1       -0.1379
     28 C         141.8373  145.4712  155.6546 C.3     1  UNL1        0.1164
     29 N         140.8622  145.7249  156.7657 N.3     1  UNL1       -0.1388
     30 C         139.4588  146.1498  156.4495 C.3     1  UNL1        0.1292
     31 C         139.1452  147.6005  156.2330 C.3     1  UNL1        0.1625
     32 C         139.3982  148.2311  154.8957 C.3     1  UNL1        0.1731
     33 O         139.0846  149.6819  154.6792 O.3     1  UNL1       -0.3485
     34 C         138.5180  150.5021  155.7999 C.3     1  UNL1        0.1742
     35 C         138.2650  149.8716  157.1373 C.3     1  UNL1        0.1742
     36 O         138.5786  148.4208  157.3538 O.3     1  UNL1       -0.3495
@<TRIPOS>BOND
     1    28    29    1
     2    29    30    1
     3    31    30    1
     4    31    32    1
     5    32    33    1
     6    33    34    1
     7    34    35    1
     8    35    36    1
     9    29    25    1
    10    25    26    2
    11    25    27    2
    12    25    23    1
    13    23     1    1
    14     1     2   ar
    15     2     3   ar
    16     3     4   ar
    17     4     5   ar
    18     5     6   ar
    19     6     7   ar
    20     7     8   ar
    21     8     9   ar
    22     9    10   ar
    23    10    17    1
    24    17    18   ar
    25    18    19   ar
    26    19    20   ar
    27    20    21    1
    28    20    22   ar
    29    10    11   ar
    30    11    12   ar
    31    12    13   ar
    32    13    14    2
    33    13    15   ar
    34    15    16   ar
    35    36    31    1
    36    16     1   ar
    37    15     4   ar
    38    12     7   ar
    39    22    17   ar
    40    23    24    1
@<TRIPOS>MOLECULE
*****
 36 40 0 0 0
SMALL
GASTEIGER

@<TRIPOS>ATOM
      1 C         139.7790  142.5321  165.4466 C.ar    1  UNL1        0.0659
      2 C         139.0473  143.8392  165.5244 C.ar    1  UNL1        0.0159
      3 C         139.1221  144.8096  164.3831 C.ar    1  UNL1        0.0014
      4 C         139.9285  144.4729  163.1640 C.ar    1  UNL1        0.0032
      5 C         139.8701  145.5740  162.1470 C.ar    1  UNL1        0.0016
      6 C         140.5290  145.6399  160.8010 C.ar    1  UNL1        0.0192
      7 C         141.4090  144.6210  160.1397 C.ar    1  UNL1        0.0844
      8 N         141.8617  145.0836  158.7865 N.ar    1  UNL1       -0.2437
      9 C         142.7528  144.2098  157.9546 C.ar    1  UNL1        0.0989
     10 C         143.1914  142.8734  158.4758 C.ar    1  UNL1        0.0223
     11 C         142.7387  142.4108  159.8289 C.ar    1  UNL1        0.0063
     12 C         141.8475  143.2846  160.6609 C.ar    1  UNL1        0.0566
     13 C         141.5143  142.6370  161.9723 C.ar    1  UNL1        0.1970
     14 O         142.1145  141.2813  162.1996 O.2     1  UNL1       -0.2865
     15 C         140.6603  143.1659  163.0862 C.ar    1  UNL1        0.0403
     16 C         140.5855  142.1955  164.2275 C.ar    1  UNL1        0.0191
     17 C         144.0826  141.9995  157.6438 C.ar    1  UNL1        0.0411
     18 C         143.9645  140.5121  157.4900 C.ar    1  UNL1        0.1217
     19 N         145.0573  140.0530  156.5708 N.ar    1  UNL1       -0.1676
     20 N         145.8508  141.2566  156.1564 N.ar    1  UNL1       -0.2473
     21 C         147.0382  141.2572  155.2398 C.3     1  UNL1        0.1538
     22 C         145.2483  142.4596  156.8196 C.ar    1  UNL1        0.0967
     23 N         139.7043  141.5616  166.5880 N.pl3   1  UNL1       -0.2052
     24 H         138.8683  141.4664  167.0992 H       1  UNL1        0.1748
     25 S         140.9031  140.7362  166.9503 S.O2    1  UNL1        0.1131
     26 O         140.3030  139.5554  166.2464 O.2     1  UNL1       -0.1379
     27 O         141.5033  141.9170  167.6543 O.2     1  UNL1       -0.1379
     28 C         142.4732  139.7194  168.7534 C.3     1  UNL1        0.1164
     29 N         142.1021  139.9107  167.3127 N.3     1  UNL1       -0.1388
     30 C         142.9297  139.2766  166.2344 C.3     1  UNL1        0.1292
     31 C         143.7274  140.1354  165.2984 C.3     1  UNL1        0.1625
     32 C         144.4433  139.5137  164.1361 C.3     1  UNL1        0.1731
     33 O         145.2411  140.3726  163.2001 O.3     1  UNL1       -0.3485
     34 C         145.3229  141.8531  163.4265 C.3     1  UNL1        0.1742
     35 C         144.6069  142.4748  164.5888 C.3     1  UNL1        0.1742
     36 O         143.8093  141.6160  165.5247 O.3     1  UNL1       -0.3495
@<TRIPOS>BOND
     1    28    29    1
     2    29    30    1
     3    31    30    1
     4    31    32    1
     5    32    33    1
     6    33    34    1
     7    34    35    1
     8    35    36    1
     9    29    25    1
    10    25    26    2
    11    25    27    2
    12    25    23    1
    13    23     1    1
    14     1     2   ar
    15     2     3   ar
    16     3     4   ar
    17     4     5   ar
    18     5     6   ar
    19     6     7   ar
    20     7     8   ar
    21     8     9   ar
    22     9    10   ar
    23    10    17    1
    24    17    18   ar
    25    18    19   ar
    26    19    20   ar
    27    20    21    1
    28    20    22   ar
    29    10    11   ar
    30    11    12   ar
    31    12    13   ar
    32    13    14    2
    33    13    15   ar
    34    15    16   ar
    35    36    31    1
    36    16     1   ar
    37    15     4   ar
    38    12     7   ar
    39    22    17   ar
    40    23    24    1
@<TRIPOS>MOLECULE
*****
 36 40 0 0 0
SMALL
GASTEIGER

@<TRIPOS>ATOM
      1 C         141.6097  140.9641  159.7049 C.ar    1  UNL1        0.0659
      2 C         140.8643  139.8962  158.9607 C.ar    1  UNL1        0.0159
      3 C         139.9805  138.9405  159.7059 C.ar    1  UNL1        0.0014
      4 C         139.8419  139.0528  161.1953 C.ar    1  UNL1        0.0032
      5 C         138.9157  138.0062  161.7400 C.ar    1  UNL1        0.0016
      6 C         138.5060  137.7691  163.1634 C.ar    1  UNL1        0.0192
      7 C         138.9215  138.5201  164.3935 C.ar    1  UNL1        0.0844
      8 N         138.2771  137.9547  165.6245 N.ar    1  UNL1       -0.2437
      9 C         138.5604  138.5628  166.9660 C.ar    1  UNL1        0.0989
     10 C         139.4881  139.7363  167.0767 C.ar    1  UNL1        0.0223
     11 C         140.1325  140.3017  165.8459 C.ar    1  UNL1        0.0063
     12 C         139.8492  139.6936  164.5042 C.ar    1  UNL1        0.0566
     13 C         140.5906  140.4060  163.4120 C.ar    1  UNL1        0.1970
     14 O         141.4486  141.5555  163.8505 O.2     1  UNL1       -0.2865
     15 C         140.5873  140.1208  161.9394 C.ar    1  UNL1        0.0403
     16 C         141.4712  141.0764  161.1942 C.ar    1  UNL1        0.0191
     17 C         139.7715  140.3445  168.4184 C.ar    1  UNL1        0.0411
     18 C         138.8887  140.2614  169.6283 C.ar    1  UNL1        0.1217
     19 N         139.5591  141.0081  170.7432 N.ar    1  UNL1       -0.1676
     20 N         140.8561  141.5526  170.2225 N.ar    1  UNL1       -0.2473
     21 C         141.8478  142.3647  171.0016 C.3     1  UNL1        0.1538
     22 C         140.9874  141.1424  168.7856 C.ar    1  UNL1        0.0967
     23 N         142.4937  141.9199  158.9597 N.pl3   1  UNL1       -0.2052
     24 H         143.3069  141.5916  158.5124 H       1  UNL1        0.1748
     25 S         142.1385  143.3758  158.8959 S.O2    1  UNL1        0.1131
     26 O         141.1320  143.0833  157.8230 O.2     1  UNL1       -0.1379
     27 O         143.1451  143.6683  159.9689 O.2     1  UNL1       -0.1379
     28 C         142.2296  145.6623  157.6655 C.3     1  UNL1        0.1164
     29 N         141.7833  144.8318  158.8322 N.3     1  UNL1       -0.1388
     30 C         140.9819  145.4573  159.9351 C.3     1  UNL1        0.1292
     31 C         140.0800  144.6083  160.7811 C.3     1  UNL1        0.1625
     32 C         140.1668  144.6814  162.2768 C.3     1  UNL1        0.1731
     33 O         139.2649  143.8324  163.1229 O.3     1  UNL1       -0.3485
     34 C         138.2762  142.9103  162.4732 C.3     1  UNL1        0.1742
     35 C         138.1893  142.8372  160.9775 C.3     1  UNL1        0.1742
     36 O         139.0912  143.6861  160.1315 O.3     1  UNL1       -0.3495
@<TRIPOS>BOND
     1    28    29    1
     2    29    30    1
     3    31    30    1
     4    31    32    1
     5    32    33    1
     6    33    34    1
     7    34    35    1
     8    35    36    1
     9    29    25    1
    10    25    26    2
    11    25    27    2
    12    25    23    1
    13    23     1    1
    14     1     2   ar
    15     2     3   ar
    16     3     4   ar
    17     4     5   ar
    18     5     6   ar
    19     6     7   ar
    20     7     8   ar
    21     8     9   ar
    22     9    10   ar
    23    10    17    1
    24    17    18   ar
    25    18    19   ar
    26    19    20   ar
    27    20    21    1
    28    20    22   ar
    29    10    11   ar
    30    11    12   ar
    31    12    13   ar
    32    13    14    2
    33    13    15   ar
    34    15    16   ar
    35    36    31    1
    36    16     1   ar
    37    15     4   ar
    38    12     7   ar
    39    22    17   ar
    40    23    24    1
@<TRIPOS>MOLECULE
*****
 36 40 0 0 0
SMALL
GASTEIGER

@<TRIPOS>ATOM
      1 C         140.1604  142.6797  164.9632 C.ar    1  UNL1        0.0659
      2 C         139.6919  144.1045  164.9407 C.ar    1  UNL1        0.0159
      3 C         139.8674  144.9321  163.7021 C.ar    1  UNL1        0.0014
      4 C         140.5114  144.3350  162.4860 C.ar    1  UNL1        0.0032
      5 C         140.5892  145.3274  161.3640 C.ar    1  UNL1        0.0016
      6 C         141.1547  145.1402  159.9873 C.ar    1  UNL1        0.0192
      7 C         141.7821  143.9142  159.3928 C.ar    1  UNL1        0.0844
      8 N         142.2189  144.1535  157.9778 N.ar    1  UNL1       -0.2437
      9 C         142.8725  143.0513  157.1982 C.ar    1  UNL1        0.0989
     10 C         143.0893  141.7098  157.8334 C.ar    1  UNL1        0.0223
     11 C         142.6526  141.4706  159.2483 C.ar    1  UNL1        0.0063
     12 C         141.9989  142.5728  160.0280 C.ar    1  UNL1        0.0566
     13 C         141.6419  142.1260  161.4147 C.ar    1  UNL1        0.1970
     14 O         141.9934  140.7073  161.7520 O.2     1  UNL1       -0.2865
     15 C         140.9799  142.9102  162.5086 C.ar    1  UNL1        0.0403
     16 C         140.8044  142.0826  163.7472 C.ar    1  UNL1        0.0191
     17 C         143.7430  140.6075  157.0537 C.ar    1  UNL1        0.0411
     18 C         145.1136  140.6505  156.4458 C.ar    1  UNL1        0.1217
     19 N         145.3583  139.3383  155.7615 N.ar    1  UNL1       -0.1676
     20 N         144.1391  138.4844  155.9465 N.ar    1  UNL1       -0.2473
     21 C         143.9511  137.0907  155.4246 C.3     1  UNL1        0.1538
     22 C         143.1407  139.2688  156.7452 C.ar    1  UNL1        0.0967
     23 N         139.9850  141.8520  166.2019 N.pl3   1  UNL1       -0.2052
     24 H         140.1926  142.2363  167.0842 H       1  UNL1        0.1748
     25 S         139.4933  140.4389  166.0962 S.O2    1  UNL1        0.1131
     26 O         140.7607  139.9503  166.7325 O.2     1  UNL1       -0.1379
     27 O         138.2258  140.9275  165.4599 O.2     1  UNL1       -0.1379
     28 C         137.7886  138.5940  166.7603 C.3     1  UNL1        0.1164
     29 N         139.0015  139.0256  165.9905 N.3     1  UNL1       -0.1388
     30 C         139.7227  138.0441  165.1151 C.3     1  UNL1        0.1292
     31 C         139.5582  138.1058  163.6254 C.3     1  UNL1        0.1625
     32 C         140.6667  137.6403  162.7285 C.3     1  UNL1        0.1731
     33 O         140.5021  137.7020  161.2388 O.3     1  UNL1       -0.3485
     34 C         139.2290  138.2291  160.6461 C.3     1  UNL1        0.1742
     35 C         138.1205  138.6945  161.5430 C.3     1  UNL1        0.1742
     36 O         138.2850  138.6328  163.0326 O.3     1  UNL1       -0.3495
@<TRIPOS>BOND
     1    28    29    1
     2    29    30    1
     3    31    30    1
     4    31    32    1
     5    32    33    1
     6    33    34    1
     7    34    35    1
     8    35    36    1
     9    29    25    1
    10    25    26    2
    11    25    27    2
    12    25    23    1
    13    23     1    1
    14     1     2   ar
    15     2     3   ar
    16     3     4   ar
    17     4     5   ar
    18     5     6   ar
    19     6     7   ar
    20     7     8   ar
    21     8     9   ar
    22     9    10   ar
    23    10    17    1
    24    17    18   ar
    25    18    19   ar
    26    19    20   ar
    27    20    21    1
    28    20    22   ar
    29    10    11   ar
    30    11    12   ar
    31    12    13   ar
    32    13    14    2
    33    13    15   ar
    34    15    16   ar
    35    36    31    1
    36    16     1   ar
    37    15     4   ar
    38    12     7   ar
    39    22    17   ar
    40    23    24    1
@<TRIPOS>MOLECULE
*****
 36 40 0 0 0
SMALL
GASTEIGER

@<TRIPOS>ATOM
      1 C         142.5600  144.1088  158.7565 C.ar    1  UNL1        0.0659
      2 C         141.5080  145.1505  158.5152 C.ar    1  UNL1        0.0159
      3 C         140.5635  145.5316  159.6164 C.ar    1  UNL1        0.0014
      4 C         140.6710  144.8711  160.9589 C.ar    1  UNL1        0.0032
      5 C         139.6373  145.3945  161.9115 C.ar    1  UNL1        0.0016
      6 C         139.4002  145.0055  163.3407 C.ar    1  UNL1        0.0192
      7 C         140.1383  143.9970  164.1701 C.ar    1  UNL1        0.0844
      8 N         139.5778  143.9140  165.5590 N.ar    1  UNL1       -0.2437
      9 C         140.1748  142.9626  166.5531 C.ar    1  UNL1        0.0989
     10 C         141.3323  142.0940  166.1583 C.ar    1  UNL1        0.0223
     11 C         141.8928  142.1770  164.7695 C.ar    1  UNL1        0.0063
     12 C         141.2958  143.1285  163.7754 C.ar    1  UNL1        0.0566
     13 C         142.0011  143.0539  162.4536 C.ar    1  UNL1        0.1970
     14 O         143.1342  142.0743  162.3749 O.2     1  UNL1       -0.2865
     15 C         141.7230  143.8295  161.2002 C.ar    1  UNL1        0.0403
     16 C         142.6675  143.4483  160.0990 C.ar    1  UNL1        0.0191
     17 C         141.9293  141.1425  167.1524 C.ar    1  UNL1        0.0411
     18 C         142.5289  139.8033  166.8409 C.ar    1  UNL1        0.1217
     19 N         143.0016  139.1963  168.1285 N.ar    1  UNL1       -0.1676
     20 N         142.6943  140.1603  169.2359 N.ar    1  UNL1       -0.2473
     21 C         142.9966  139.9572  170.6910 C.3     1  UNL1        0.1538
     22 C         142.0316  141.3631  168.6326 C.ar    1  UNL1        0.0967
     23 N         143.5045  143.7276  157.6553 N.pl3   1  UNL1       -0.2052
     24 H         143.9633  144.4271  157.1362 H       1  UNL1        0.1748
     25 S         143.7500  142.2808  157.3451 S.O2    1  UNL1        0.1131
     26 O         145.1393  142.3979  157.8985 O.2     1  UNL1       -0.1379
     27 O         142.3608  142.1637  156.7918 O.2     1  UNL1       -0.1379
     28 C         145.2205  140.4282  156.2699 C.3     1  UNL1        0.1164
     29 N         143.9956  140.8338  157.0349 N.3     1  UNL1       -0.1388
     30 C         143.0164  139.7926  157.4897 C.3     1  UNL1        0.1292
     31 C         142.8986  139.4598  158.9476 C.3     1  UNL1        0.1625
     32 C         141.6064  139.7012  159.6700 C.3     1  UNL1        0.1731
     33 O         141.4886  139.3684  161.1279 O.3     1  UNL1       -0.3485
     34 C         142.6631  138.7941  161.8633 C.3     1  UNL1        0.1742
     35 C         143.9553  138.5526  161.1409 C.3     1  UNL1        0.1742
     36 O         144.0731  138.8855  159.6830 O.3     1  UNL1       -0.3495
@<TRIPOS>BOND
     1    28    29    1
     2    29    30    1
     3    31    30    1
     4    31    32    1
     5    32    33    1
     6    33    34    1
     7    34    35    1
     8    35    36    1
     9    29    25    1
    10    25    26    2
    11    25    27    2
    12    25    23    1
    13    23     1    1
    14     1     2   ar
    15     2     3   ar
    16     3     4   ar
    17     4     5   ar
    18     5     6   ar
    19     6     7   ar
    20     7     8   ar
    21     8     9   ar
    22     9    10   ar
    23    10    17    1
    24    17    18   ar
    25    18    19   ar
    26    19    20   ar
    27    20    21    1
    28    20    22   ar
    29    10    11   ar
    30    11    12   ar
    31    12    13   ar
    32    13    14    2
    33    13    15   ar
    34    15    16   ar
    35    36    31    1
    36    16     1   ar
    37    15     4   ar
    38    12     7   ar
    39    22    17   ar
    40    23    24    1
@<TRIPOS>MOLECULE
*****
 36 40 0 0 0
SMALL
GASTEIGER

@<TRIPOS>ATOM
      1 C         140.2493  142.7090  165.5064 C.ar    1  UNL1        0.0659
      2 C         139.3820  143.9225  165.6648 C.ar    1  UNL1        0.0159
      3 C         139.2547  144.9055  164.5389 C.ar    1  UNL1        0.0014
      4 C         139.9948  144.6750  163.2547 C.ar    1  UNL1        0.0032
      5 C         139.7306  145.7713  162.2656 C.ar    1  UNL1        0.0016
      6 C         140.2685  145.9248  160.8738 C.ar    1  UNL1        0.0192
      7 C         141.2034  145.0200  160.1274 C.ar    1  UNL1        0.0844
      8 N         141.4914  145.5439  158.7517 N.ar    1  UNL1       -0.2437
      9 C         142.4073  144.7860  157.8371 C.ar    1  UNL1        0.0989
     10 C         143.0353  143.5041  158.2981 C.ar    1  UNL1        0.0223
     11 C         142.7473  142.9802  159.6738 C.ar    1  UNL1        0.0063
     12 C         141.8314  143.7381  160.5885 C.ar    1  UNL1        0.0566
     13 C         141.6794  143.0445  161.9098 C.ar    1  UNL1        0.1970
     14 O         142.4463  141.7648  162.0650 O.2     1  UNL1       -0.2865
     15 C         140.8621  143.4615  163.0964 C.ar    1  UNL1        0.0403
     16 C         140.9893  142.4785  164.2222 C.ar    1  UNL1        0.0191
     17 C         143.9512  142.7461  157.3834 C.ar    1  UNL1        0.0411
     18 C         145.3375  142.2779  157.7137 C.ar    1  UNL1        0.1217
     19 N         145.8846  141.5657  156.5123 N.ar    1  UNL1       -0.1676
     20 N         144.8366  141.5938  155.4395 N.ar    1  UNL1       -0.2473
     21 C         144.9615  140.9971  154.0689 C.3     1  UNL1        0.1538
     22 C         143.6417  142.3233  155.9779 C.ar    1  UNL1        0.0967
     23 N         140.3766  141.7260  166.6323 N.pl3   1  UNL1       -0.2052
     24 H         139.9519  141.9140  167.5003 H       1  UNL1        0.1748
     25 S         141.1509  140.4565  166.4355 S.O2    1  UNL1        0.1131
     26 O         139.9009  139.7651  165.9777 O.2     1  UNL1       -0.1379
     27 O         142.4008  141.1479  166.8933 O.2     1  UNL1       -0.1379
     28 C         143.1006  138.8812  167.1189 C.3     1  UNL1        0.1164
     29 N         141.9252  139.1869  166.2387 N.3     1  UNL1       -0.1388
     30 C         141.5240  138.2230  165.1617 C.3     1  UNL1        0.1292
     31 C         142.1549  138.3106  163.8037 C.3     1  UNL1        0.1625
     32 C         143.5867  138.7366  163.6681 C.3     1  UNL1        0.1731
     33 O         144.2177  138.8243  162.3100 O.3     1  UNL1       -0.3485
     34 C         143.4169  138.4859  161.0877 C.3     1  UNL1        0.1742
     35 C         141.9850  138.0599  161.2233 C.3     1  UNL1        0.1742
     36 O         141.3541  137.9723  162.5813 O.3     1  UNL1       -0.3495
@<TRIPOS>BOND
     1    28    29    1
     2    29    30    1
     3    31    30    1
     4    31    32    1
     5    32    33    1
     6    33    34    1
     7    34    35    1
     8    35    36    1
     9    29    25    1
    10    25    26    2
    11    25    27    2
    12    25    23    1
    13    23     1    1
    14     1     2   ar
    15     2     3   ar
    16     3     4   ar
    17     4     5   ar
    18     5     6   ar
    19     6     7   ar
    20     7     8   ar
    21     8     9   ar
    22     9    10   ar
    23    10    17    1
    24    17    18   ar
    25    18    19   ar
    26    19    20   ar
    27    20    21    1
    28    20    22   ar
    29    10    11   ar
    30    11    12   ar
    31    12    13   ar
    32    13    14    2
    33    13    15   ar
    34    15    16   ar
    35    36    31    1
    36    16     1   ar
    37    15     4   ar
    38    12     7   ar
    39    22    17   ar
    40    23    24    1
@<TRIPOS>MOLECULE
*****
 36 40 0 0 0
SMALL
GASTEIGER

@<TRIPOS>ATOM
      1 C         143.3614  141.3729  161.1254 C.ar    1  UNL1        0.0659
      2 C         144.1114  140.0785  161.0163 C.ar    1  UNL1        0.0159
      3 C         144.2896  139.2107  162.2267 C.ar    1  UNL1        0.0014
      4 C         143.7179  139.6373  163.5462 C.ar    1  UNL1        0.0032
      5 C         144.0078  138.6311  164.6201 C.ar    1  UNL1        0.0016
      6 C         143.6194  138.6708  166.0685 C.ar    1  UNL1        0.0192
      7 C         142.8452  139.7266  166.8005 C.ar    1  UNL1        0.0844
      8 N         142.6746  139.3758  168.2489 N.ar    1  UNL1       -0.2437
      9 C         141.9270  140.3018  169.1618 C.ar    1  UNL1        0.0989
     10 C         141.3499  141.5786  168.6264 C.ar    1  UNL1        0.0223
     11 C         141.5204  141.9294  167.1780 C.ar    1  UNL1        0.0063
     12 C         142.2680  141.0033  166.2650 C.ar    1  UNL1        0.0566
     13 C         142.3227  141.5397  164.8652 C.ar    1  UNL1        0.1970
     14 O         141.6420  142.8584  164.6466 O.2     1  UNL1       -0.2865
     15 C         142.9679  140.9318  163.6553 C.ar    1  UNL1        0.0403
     16 C         142.7897  141.7996  162.4449 C.ar    1  UNL1        0.0191
     17 C         140.6022  142.5048  169.5393 C.ar    1  UNL1        0.0411
     18 C         139.7136  142.0948  170.6761 C.ar    1  UNL1        0.1217
     19 N         139.1741  143.3401  171.3150 N.ar    1  UNL1       -0.1676
     20 N         139.7293  144.5197  170.5731 N.ar    1  UNL1       -0.2473
     21 C         139.4508  145.9623  170.8755 C.3     1  UNL1        0.1538
     22 C         140.6119  144.0034  169.4757 C.ar    1  UNL1        0.0967
     23 N         143.1832  142.2408  159.9149 N.pl3   1  UNL1       -0.2052
     24 H         143.9226  142.3497  159.2741 H       1  UNL1        0.1748
     25 S         141.8784  142.9427  159.6809 S.O2    1  UNL1        0.1131
     26 O         142.5461  144.2641  159.9216 O.2     1  UNL1       -0.1379
     27 O         141.2107  141.6213  159.4401 O.2     1  UNL1       -0.1379
     28 C         139.6511  143.1712  158.3629 C.3     1  UNL1        0.1164
     29 N         140.5736  143.6447  159.4468 N.3     1  UNL1       -0.1388
     30 C         140.1912  144.8200  160.2967 C.3     1  UNL1        0.1292
     31 C         139.4974  144.6027  161.6087 C.3     1  UNL1        0.1625
     32 C         139.9474  145.3514  162.8281 C.3     1  UNL1        0.1731
     33 O         139.2534  145.1340  164.1401 O.3     1  UNL1       -0.3485
     34 C         138.1096  144.1681  164.2326 C.3     1  UNL1        0.1742
     35 C         137.6596  143.4195  163.0132 C.3     1  UNL1        0.1742
     36 O         138.3535  143.6368  161.7012 O.3     1  UNL1       -0.3495
@<TRIPOS>BOND
     1    28    29    1
     2    29    30    1
     3    31    30    1
     4    31    32    1
     5    32    33    1
     6    33    34    1
     7    34    35    1
     8    35    36    1
     9    29    25    1
    10    25    26    2
    11    25    27    2
    12    25    23    1
    13    23     1    1
    14     1     2   ar
    15     2     3   ar
    16     3     4   ar
    17     4     5   ar
    18     5     6   ar
    19     6     7   ar
    20     7     8   ar
    21     8     9   ar
    22     9    10   ar
    23    10    17    1
    24    17    18   ar
    25    18    19   ar
    26    19    20   ar
    27    20    21    1
    28    20    22   ar
    29    10    11   ar
    30    11    12   ar
    31    12    13   ar
    32    13    14    2
    33    13    15   ar
    34    15    16   ar
    35    36    31    1
    36    16     1   ar
    37    15     4   ar
    38    12     7   ar
    39    22    17   ar
    40    23    24    1
@<TRIPOS>MOLECULE
*****
 36 40 0 0 0
SMALL
GASTEIGER

@<TRIPOS>ATOM
      1 C         140.7691  139.0248  164.9056 C.ar    1  UNL1        0.0659
      2 C         139.6814  137.9925  164.8698 C.ar    1  UNL1        0.0159
      3 C         138.7101  137.9660  163.7271 C.ar    1  UNL1        0.0014
      4 C         138.8265  138.9716  162.6203 C.ar    1  UNL1        0.0032
      5 C         137.7624  138.7700  161.5825 C.ar    1  UNL1        0.0016
      6 C         137.5231  139.5508  160.3242 C.ar    1  UNL1        0.0192
      7 C         138.2890  140.7260  159.7930 C.ar    1  UNL1        0.0844
      8 N         137.7155  141.2126  158.4952 N.ar    1  UNL1       -0.2437
      9 C         138.3361  142.3839  157.7932 C.ar    1  UNL1        0.0989
     10 C         139.5303  143.0687  158.3891 C.ar    1  UNL1        0.0223
     11 C         140.1038  142.5821  159.6868 C.ar    1  UNL1        0.0063
     12 C         139.4832  141.4108  160.3889 C.ar    1  UNL1        0.0566
     13 C         140.2065  141.0894  161.6631 C.ar    1  UNL1        0.1970
     14 O         141.3767  141.9700  161.9870 O.2     1  UNL1       -0.2865
     15 C         139.9142  140.0039  162.6561 C.ar    1  UNL1        0.0403
     16 C         140.8855  140.0304  163.7988 C.ar    1  UNL1        0.0191
     17 C         140.1510  144.2400  157.6871 C.ar    1  UNL1        0.0411
     18 C         141.4185  144.9362  158.0855 C.ar    1  UNL1        0.1217
     19 N         141.6640  146.0472  157.1081 N.ar    1  UNL1       -0.1676
     20 N         140.5482  146.0377  156.1056 N.ar    1  UNL1       -0.2473
     21 C         140.3945  146.9797  154.9484 C.3     1  UNL1        0.1538
     22 C         139.6132  144.9208  156.4634 C.ar    1  UNL1        0.0967
     23 N         141.7405  139.0514  166.0484 N.pl3   1  UNL1       -0.2052
     24 H         141.9598  138.2198  166.5275 H       1  UNL1        0.1748
     25 S         142.3777  140.3450  166.4611 S.O2    1  UNL1        0.1131
     26 O         143.6208  139.9727  165.7089 O.2     1  UNL1       -0.1379
     27 O         141.1345  140.7174  167.2133 O.2     1  UNL1       -0.1379
     28 C         142.9552  142.0809  168.3059 C.3     1  UNL1        0.1164
     29 N         143.0150  141.6388  166.8738 N.3     1  UNL1       -0.1388
     30 C         143.7119  142.4902  165.8545 C.3     1  UNL1        0.1292
     31 C         142.9171  143.4101  164.9759 C.3     1  UNL1        0.1625
     32 C         143.6083  144.2249  163.9231 C.3     1  UNL1        0.1731
     33 O         142.8134  145.1448  163.0445 O.3     1  UNL1       -0.3485
     34 C         141.3273  145.2499  163.2186 C.3     1  UNL1        0.1742
     35 C         140.6360  144.4351  164.2714 C.3     1  UNL1        0.1742
     36 O         141.4309  143.5153  165.1500 O.3     1  UNL1       -0.3495
@<TRIPOS>BOND
     1    28    29    1
     2    29    30    1
     3    31    30    1
     4    31    32    1
     5    32    33    1
     6    33    34    1
     7    34    35    1
     8    35    36    1
     9    29    25    1
    10    25    26    2
    11    25    27    2
    12    25    23    1
    13    23     1    1
    14     1     2   ar
    15     2     3   ar
    16     3     4   ar
    17     4     5   ar
    18     5     6   ar
    19     6     7   ar
    20     7     8   ar
    21     8     9   ar
    22     9    10   ar
    23    10    17    1
    24    17    18   ar
    25    18    19   ar
    26    19    20   ar
    27    20    21    1
    28    20    22   ar
    29    10    11   ar
    30    11    12   ar
    31    12    13   ar
    32    13    14    2
    33    13    15   ar
    34    15    16   ar
    35    36    31    1
    36    16     1   ar
    37    15     4   ar
    38    12     7   ar
    39    22    17   ar
    40    23    24    1
