@<TRIPOS>MOLECULE
*****
 28 31 0 0 0
SMALL
GASTEIGER

@<TRIPOS>ATOM
      1 C         137.4521  139.9270  161.1520 C.3     1  UNL1        0.1366
      2 N         137.9502  140.8447  162.2290 N.ar    1  UNL1       -0.2630
      3 C         138.0693  142.3367  162.1306 C.ar    1  UNL1        0.3331
      4 O         137.7112  143.1730  160.9379 O.2     1  UNL1       -0.2462
      5 N         138.6093  142.8456  163.4342 N.ar    1  UNL1       -0.2694
      6 C         138.8240  141.6680  164.3383 C.ar    1  UNL1        0.0986
      7 C         139.3378  141.5621  165.7435 C.ar    1  UNL1        0.0224
      8 C         139.4442  140.2195  166.4039 C.ar    1  UNL1        0.0267
      9 C         139.0369  138.9829  165.6590 C.ar    1  UNL1        0.1011
     10 N         138.5231  139.0888  164.2538 N.ar    1  UNL1       -0.2251
     11 C         138.4166  140.4314  163.5934 C.ar    1  UNL1        0.1633
     12 C         139.9580  140.1135  167.8092 C.ar    1  UNL1        0.0309
     13 C         139.1404  140.2488  169.0595 C.ar    1  UNL1        0.0070
     14 C         140.0567  140.0725  170.2339 C.ar    1  UNL1        0.0109
     15 C         141.4407  139.8282  169.7094 C.ar    1  UNL1        0.1009
     16 S         141.3797  139.8536  168.2109 S.2     1  UNL1       -0.0831
     17 C         142.6699  139.5989  170.5380 C.3     1  UNL1        0.4241
     18 F         143.8990  139.3696  171.3667 F       1  UNL1       -0.1654
     19 F         142.6977  138.1646  170.0998 F       1  UNL1       -0.1654
     20 F         142.6421  141.0332  170.9763 F       1  UNL1       -0.1654
     21 C         138.8860  144.2801  163.7741 C.3     1  UNL1        0.1956
     22 C         140.0968  144.9641  163.2115 C.2     1  UNL1        0.2490
     23 O         139.9386  146.0348  162.1730 O.2     1  UNL1       -0.2728
     24 N         141.4657  144.5773  163.6875 N.am    1  UNL1       -0.2722
     25 C         142.8632  145.0202  163.3704 C.3     1  UNL1        0.1305
     26 C         143.4016  144.0303  164.3606 C.3     1  UNL1        0.2003
     27 F         144.7704  143.6435  164.8365 F       1  UNL1       -0.2336
     28 C         142.0040  143.5874  164.6777 C.3     1  UNL1        0.1305
@<TRIPOS>BOND
     1     1     2    1
     2     2     3   ar
     3     3     4    2
     4     3     5   ar
     5     5    21    1
     6    21    22    1
     7    22    23    2
     8    22    24   am
     9    24    25    1
    10    25    26    1
    11    26    27    1
    12    26    28    1
    13     5     6   ar
    14     6     7   ar
    15     7     8   ar
    16     8    12    1
    17    12    13   ar
    18    13    14   ar
    19    14    15   ar
    20    15    17    1
    21    17    18    1
    22    17    19    1
    23    17    20    1
    24    15    16   ar
    25     8     9   ar
    26     9    10   ar
    27    10    11   ar
    28    11     2   ar
    29    28    24    1
    30    11     6   ar
    31    16    12   ar
@<TRIPOS>MOLECULE
*****
 28 31 0 0 0
SMALL
GASTEIGER

@<TRIPOS>ATOM
      1 C         142.6587  137.6911  160.8275 C.3     1  UNL1        0.1366
      2 N         141.7809  138.2856  161.8886 N.ar    1  UNL1       -0.2630
      3 C         140.3139  138.5716  161.7610 C.ar    1  UNL1        0.3331
      4 O         139.4673  138.3133  160.5501 O.2     1  UNL1       -0.2462
      5 N         139.8423  139.1612  163.0572 N.ar    1  UNL1       -0.2694
      6 C         141.0177  139.2396  163.9857 C.ar    1  UNL1        0.0986
      7 C         141.1519  139.7339  165.3955 C.ar    1  UNL1        0.0224
      8 C         142.4841  139.6870  166.0831 C.ar    1  UNL1        0.0267
      9 C         143.6823  139.1458  165.3609 C.ar    1  UNL1        0.1011
     10 N         143.5481  138.6516  163.9511 N.ar    1  UNL1       -0.2251
     11 C         142.2159  138.6985  163.2635 C.ar    1  UNL1        0.1633
     12 C         142.6183  140.1812  167.4930 C.ar    1  UNL1        0.0309
     13 C         142.4913  139.3495  168.7348 C.ar    1  UNL1        0.0070
     14 C         142.6976  140.2482  169.9179 C.ar    1  UNL1        0.0109
     15 C         142.9521  141.6355  169.4073 C.ar    1  UNL1        0.1009
     16 S         142.9031  141.5941  167.9087 S.2     1  UNL1       -0.0831
     17 C         143.2102  142.8508  170.2477 C.3     1  UNL1        0.4241
     18 F         143.4684  144.0661  171.0882 F       1  UNL1       -0.1654
     19 F         144.6878  142.6445  170.0923 F       1  UNL1       -0.1654
     20 F         141.7327  143.0572  170.4032 F       1  UNL1       -0.1654
     21 C         138.4412  139.5961  163.3699 C.3     1  UNL1        0.1956
     22 C         137.9140  140.8852  162.8126 C.2     1  UNL1        0.2490
     23 O         137.2191  140.8991  161.4833 O.2     1  UNL1       -0.2728
     24 N         138.0816  142.1603  163.5847 N.am    1  UNL1       -0.2722
     25 C         137.7012  143.5937  163.3604 C.3     1  UNL1        0.1305
     26 C         138.3187  143.9635  164.6766 C.3     1  UNL1        0.2003
     27 F         138.4863  145.2385  165.4486 F       1  UNL1       -0.2336
     28 C         138.6990  142.5299  164.9008 C.3     1  UNL1        0.1305
@<TRIPOS>BOND
     1     1     2    1
     2     2     3   ar
     3     3     4    2
     4     3     5   ar
     5     5    21    1
     6    21    22    1
     7    22    23    2
     8    22    24   am
     9    24    25    1
    10    25    26    1
    11    26    27    1
    12    26    28    1
    13     5     6   ar
    14     6     7   ar
    15     7     8   ar
    16     8    12    1
    17    12    13   ar
    18    13    14   ar
    19    14    15   ar
    20    15    17    1
    21    17    18    1
    22    17    19    1
    23    17    20    1
    24    15    16   ar
    25     8     9   ar
    26     9    10   ar
    27    10    11   ar
    28    11     2   ar
    29    28    24    1
    30    11     6   ar
    31    16    12   ar
@<TRIPOS>MOLECULE
*****
 28 31 0 0 0
SMALL
GASTEIGER

@<TRIPOS>ATOM
      1 C         137.6841  138.0202  161.7149 C.3     1  UNL1        0.1366
      2 N         137.9687  139.3235  162.4007 N.ar    1  UNL1       -0.2630
      3 C         137.8027  140.6891  161.8027 C.ar    1  UNL1        0.3331
      4 O         137.3228  140.9912  160.4140 O.2     1  UNL1       -0.2462
      5 N         138.2008  141.6996  162.8373 N.ar    1  UNL1       -0.2694
      6 C         138.6129  140.9585  164.0747 C.ar    1  UNL1        0.0986
      7 C         139.1002  141.4312  165.4122 C.ar    1  UNL1        0.0224
      8 C         139.4440  140.4354  166.4799 C.ar    1  UNL1        0.0267
      9 C         139.3006  138.9668  166.2100 C.ar    1  UNL1        0.1011
     10 N         138.8133  138.4941  164.8725 N.ar    1  UNL1       -0.2251
     11 C         138.4695  139.4900  163.8048 C.ar    1  UNL1        0.1633
     12 C         139.9314  140.9080  167.8175 C.ar    1  UNL1        0.0309
     13 C         139.4306  140.4433  169.1529 C.ar    1  UNL1        0.0070
     14 C         140.1948  141.1765  170.2152 C.ar    1  UNL1        0.0109
     15 C         141.1678  142.0943  169.5364 C.ar    1  UNL1        0.1009
     16 S         141.0050  141.9284  168.0545 S.2     1  UNL1       -0.0831
     17 C         142.1340  143.0162  170.2195 C.3     1  UNL1        0.4241
     18 F         143.1002  143.9380  170.9026 F       1  UNL1       -0.1654
     19 F         141.2020  144.1676  169.9839 F       1  UNL1       -0.1654
     20 F         143.0660  141.8648  170.4551 F       1  UNL1       -0.1654
     21 C         138.1889  143.1896  162.6649 C.3     1  UNL1        0.1956
     22 C         139.2910  143.8654  161.9040 C.2     1  UNL1        0.2490
     23 O         139.1609  144.0768  160.4247 O.2     1  UNL1       -0.2728
     24 N         140.5231  144.3298  162.6226 N.am    1  UNL1       -0.2722
     25 C         141.7910  145.0204  162.2161 C.3     1  UNL1        0.1305
     26 C         142.2655  144.9866  163.6387 C.3     1  UNL1        0.2003
     27 F         143.4975  145.4510  164.3572 F       1  UNL1       -0.2336
     28 C         140.9975  144.2960  164.0452 C.3     1  UNL1        0.1305
@<TRIPOS>BOND
     1     1     2    1
     2     2     3   ar
     3     3     4    2
     4     3     5   ar
     5     5    21    1
     6    21    22    1
     7    22    23    2
     8    22    24   am
     9    24    25    1
    10    25    26    1
    11    26    27    1
    12    26    28    1
    13     5     6   ar
    14     6     7   ar
    15     7     8   ar
    16     8    12    1
    17    12    13   ar
    18    13    14   ar
    19    14    15   ar
    20    15    17    1
    21    17    18    1
    22    17    19    1
    23    17    20    1
    24    15    16   ar
    25     8     9   ar
    26     9    10   ar
    27    10    11   ar
    28    11     2   ar
    29    28    24    1
    30    11     6   ar
    31    16    12   ar
@<TRIPOS>MOLECULE
*****
 28 31 0 0 0
SMALL
GASTEIGER

@<TRIPOS>ATOM
      1 C         139.2729  146.6476  160.9961 C.3     1  UNL1        0.1366
      2 N         139.9850  145.3862  161.3858 N.ar    1  UNL1       -0.2630
      3 C         141.2348  144.8483  160.7544 C.ar    1  UNL1        0.3331
      4 O         141.9919  145.4773  159.6225 O.2     1  UNL1       -0.2462
      5 N         141.5946  143.5710  161.4537 N.ar    1  UNL1       -0.2694
      6 C         140.5671  143.3195  162.5172 C.ar    1  UNL1        0.0986
      7 C         140.4089  142.2138  163.5184 C.ar    1  UNL1        0.0224
      8 C         139.2559  142.2301  164.4777 C.ar    1  UNL1        0.0267
      9 C         138.2611  143.3520  164.4357 C.ar    1  UNL1        0.1011
     10 N         138.4194  144.4577  163.4345 N.ar    1  UNL1       -0.2251
     11 C         139.5724  144.4414  162.4753 C.ar    1  UNL1        0.1633
     12 C         139.0976  141.1244  165.4790 C.ar    1  UNL1        0.0309
     13 C         139.7092  141.0804  166.8479 C.ar    1  UNL1        0.0070
     14 C         139.2894  139.7975  167.5021 C.ar    1  UNL1        0.0109
     15 C         138.4184  139.0486  166.5374 C.ar    1  UNL1        0.1009
     16 S         138.2998  139.8687  165.2871 S.2     1  UNL1       -0.0831
     17 C         137.7783  137.7140  166.7804 C.3     1  UNL1        0.4241
     18 F         137.1383  136.3793  167.0234 F       1  UNL1       -0.1654
     19 F         138.5764  137.1262  165.6546 F       1  UNL1       -0.1654
     20 F         136.9802  138.3017  167.9063 F       1  UNL1       -0.1654
     21 C         142.7746  142.6983  161.1438 C.3     1  UNL1        0.1956
     22 C         144.0296  142.8175  161.9568 C.2     1  UNL1        0.2490
     23 O         144.8348  144.0823  161.9122 O.2     1  UNL1       -0.2728
     24 N         144.4794  141.6719  162.8143 N.am    1  UNL1       -0.2722
     25 C         145.6385  141.4270  163.7343 C.3     1  UNL1        0.1305
     26 C         145.1155  140.0518  164.0270 C.3     1  UNL1        0.2003
     27 F         145.5653  138.9063  164.8845 F       1  UNL1       -0.2336
     28 C         143.9564  140.2969  163.1070 C.3     1  UNL1        0.1305
@<TRIPOS>BOND
     1     1     2    1
     2     2     3   ar
     3     3     4    2
     4     3     5   ar
     5     5    21    1
     6    21    22    1
     7    22    23    2
     8    22    24   am
     9    24    25    1
    10    25    26    1
    11    26    27    1
    12    26    28    1
    13     5     6   ar
    14     6     7   ar
    15     7     8   ar
    16     8    12    1
    17    12    13   ar
    18    13    14   ar
    19    14    15   ar
    20    15    17    1
    21    17    18    1
    22    17    19    1
    23    17    20    1
    24    15    16   ar
    25     8     9   ar
    26     9    10   ar
    27    10    11   ar
    28    11     2   ar
    29    28    24    1
    30    11     6   ar
    31    16    12   ar
@<TRIPOS>MOLECULE
*****
 28 31 0 0 0
SMALL
GASTEIGER

@<TRIPOS>ATOM
      1 C         144.1082  138.5553  160.9445 C.3     1  UNL1        0.1366
      2 N         143.7986  139.7498  161.7973 N.ar    1  UNL1       -0.2630
      3 C         143.8822  141.1848  161.3685 C.ar    1  UNL1        0.3331
      4 O         144.2901  141.6772  160.0116 O.2     1  UNL1       -0.2462
      5 N         143.4863  142.0408  162.5349 N.ar    1  UNL1       -0.2694
      6 C         143.1581  141.1350  163.6845 C.ar    1  UNL1        0.0986
      7 C         142.7083  141.4165  165.0875 C.ar    1  UNL1        0.0224
      8 C         142.4516  140.2821  166.0347 C.ar    1  UNL1        0.0267
      9 C         142.6446  138.8661  165.5788 C.ar    1  UNL1        0.1011
     10 N         143.0943  138.5846  164.1758 N.ar    1  UNL1       -0.2251
     11 C         143.3511  139.7190  163.2287 C.ar    1  UNL1        0.1633
     12 C         142.0019  140.5636  167.4377 C.ar    1  UNL1        0.0309
     13 C         142.3930  139.7889  168.6612 C.ar    1  UNL1        0.0070
     14 C         141.7149  140.4157  169.8432 C.ar    1  UNL1        0.0109
     15 C         140.9047  141.5780  169.3503 C.ar    1  UNL1        0.1009
     16 S         141.0821  141.6693  167.8637 S.2     1  UNL1       -0.0831
     17 C         140.0647  142.4888  170.1957 C.3     1  UNL1        0.4241
     18 F         139.2246  143.3997  171.0410 F       1  UNL1       -0.1654
     19 F         138.9772  141.4562  170.2276 F       1  UNL1       -0.1654
     20 F         141.1521  143.5214  170.1637 F       1  UNL1       -0.1654
     21 C         143.4288  143.5397  162.5491 C.3     1  UNL1        0.1956
     22 C         142.1995  144.2477  162.0615 C.2     1  UNL1        0.2490
     23 O         142.1090  144.6956  160.6328 O.2     1  UNL1       -0.2728
     24 N         141.0609  144.5080  163.0026 N.am    1  UNL1       -0.2722
     25 C         139.7170  145.1639  162.8857 C.3     1  UNL1        0.1305
     26 C         139.4505  144.8760  164.3335 C.3     1  UNL1        0.2003
     27 F         138.3119  145.1362  165.2746 F       1  UNL1       -0.2336
     28 C         140.7945  144.2201  164.4504 C.3     1  UNL1        0.1305
@<TRIPOS>BOND
     1     1     2    1
     2     2     3   ar
     3     3     4    2
     4     3     5   ar
     5     5    21    1
     6    21    22    1
     7    22    23    2
     8    22    24   am
     9    24    25    1
    10    25    26    1
    11    26    27    1
    12    26    28    1
    13     5     6   ar
    14     6     7   ar
    15     7     8   ar
    16     8    12    1
    17    12    13   ar
    18    13    14   ar
    19    14    15   ar
    20    15    17    1
    21    17    18    1
    22    17    19    1
    23    17    20    1
    24    15    16   ar
    25     8     9   ar
    26     9    10   ar
    27    10    11   ar
    28    11     2   ar
    29    28    24    1
    30    11     6   ar
    31    16    12   ar
@<TRIPOS>MOLECULE
*****
 28 31 0 0 0
SMALL
GASTEIGER

@<TRIPOS>ATOM
      1 C         139.4515  146.3027  161.3950 C.3     1  UNL1        0.1366
      2 N         140.4063  145.2778  161.9315 N.ar    1  UNL1       -0.2630
      3 C         141.5859  144.7051  161.2032 C.ar    1  UNL1        0.3331
      4 O         142.0178  145.0566  159.8104 O.2     1  UNL1       -0.2462
      5 N         142.2578  143.7191  162.1122 N.ar    1  UNL1       -0.2694
      6 C         141.4935  143.6824  163.4023 C.ar    1  UNL1        0.0986
      7 C         141.6916  142.8963  164.6643 C.ar    1  UNL1        0.0224
      8 C         140.7454  143.0735  165.8146 C.ar    1  UNL1        0.0267
      9 C         139.6011  144.0369  165.7030 C.ar    1  UNL1        0.1011
     10 N         139.4030  144.8231  164.4410 N.ar    1  UNL1       -0.2251
     11 C         140.3492  144.6458  163.2907 C.ar    1  UNL1        0.1633
     12 C         140.9435  142.2873  167.0767 C.ar    1  UNL1        0.0309
     13 C         140.4203  142.6525  168.4342 C.ar    1  UNL1        0.0070
     14 C         140.8530  141.5888  169.3993 C.ar    1  UNL1        0.0109
     15 C         141.6438  140.5663  168.6382 C.ar    1  UNL1        0.1009
     16 S         141.6997  140.9980  167.2028 S.2     1  UNL1       -0.0831
     17 C         142.2688  139.3293  169.2119 C.3     1  UNL1        0.4241
     18 F         142.8939  138.0922  169.7855 F       1  UNL1       -0.1654
     19 F         142.8998  139.0322  167.8839 F       1  UNL1       -0.1654
     20 F         141.6379  139.6263  170.5399 F       1  UNL1       -0.1654
     21 C         143.4795  142.9114  161.7880 C.3     1  UNL1        0.1956
     22 C         143.3985  141.4142  161.7422 C.2     1  UNL1        0.2490
     23 O         142.6717  140.7365  160.6187 O.2     1  UNL1       -0.2728
     24 N         144.0444  140.5949  162.8200 N.am    1  UNL1       -0.2722
     25 C         144.1712  139.1277  163.1047 C.3     1  UNL1        0.1305
     26 C         144.9577  139.4362  164.3442 C.3     1  UNL1        0.2003
     27 F         145.6035  138.6169  165.4219 F       1  UNL1       -0.2336
     28 C         144.8308  140.9034  164.0595 C.3     1  UNL1        0.1305
@<TRIPOS>BOND
     1     1     2    1
     2     2     3   ar
     3     3     4    2
     4     3     5   ar
     5     5    21    1
     6    21    22    1
     7    22    23    2
     8    22    24   am
     9    24    25    1
    10    25    26    1
    11    26    27    1
    12    26    28    1
    13     5     6   ar
    14     6     7   ar
    15     7     8   ar
    16     8    12    1
    17    12    13   ar
    18    13    14   ar
    19    14    15   ar
    20    15    17    1
    21    17    18    1
    22    17    19    1
    23    17    20    1
    24    15    16   ar
    25     8     9   ar
    26     9    10   ar
    27    10    11   ar
    28    11     2   ar
    29    28    24    1
    30    11     6   ar
    31    16    12   ar
@<TRIPOS>MOLECULE
*****
 28 31 0 0 0
SMALL
GASTEIGER

@<TRIPOS>ATOM
      1 C         139.2404  138.2737  161.3619 C.3     1  UNL1        0.1366
      2 N         139.1620  139.3747  162.3775 N.ar    1  UNL1       -0.2630
      3 C         138.2711  140.5793  162.3050 C.ar    1  UNL1        0.3331
      4 O         137.3022  140.8944  161.2041 O.2     1  UNL1       -0.2462
      5 N         138.5193  141.4136  163.5266 N.ar    1  UNL1       -0.2694
      6 C         139.5635  140.7246  164.3542 C.ar    1  UNL1        0.0986
      7 C         140.2039  141.0818  165.6627 C.ar    1  UNL1        0.0224
      8 C         141.2416  140.1789  166.2609 C.ar    1  UNL1        0.0267
      9 C         141.6389  138.9188  165.5507 C.ar    1  UNL1        0.1011
     10 N         140.9984  138.5616  164.2423 N.ar    1  UNL1       -0.2251
     11 C         139.9607  139.4645  163.6440 C.ar    1  UNL1        0.1633
     12 C         141.8822  140.5361  167.5695 C.ar    1  UNL1        0.0309
     13 C         142.3496  139.5682  168.6157 C.ar    1  UNL1        0.0070
     14 C         142.9240  140.3578  169.7543 C.ar    1  UNL1        0.0109
     15 C         142.8116  141.8139  169.4118 C.ar    1  UNL1        0.1009
     16 S         142.1677  141.9241  168.0616 S.2     1  UNL1       -0.0831
     17 C         143.2636  142.9587  170.2691 C.3     1  UNL1        0.4241
     18 F         143.7157  144.1036  171.1264 F       1  UNL1       -0.1654
     19 F         144.6785  142.4694  170.1764 F       1  UNL1       -0.1654
     20 F         141.8488  143.4481  170.3618 F       1  UNL1       -0.1654
     21 C         137.8421  142.7094  163.8619 C.3     1  UNL1        0.1956
     22 C         138.6428  143.9753  163.9420 C.2     1  UNL1        0.2490
     23 O         138.6838  144.7571  165.2215 O.2     1  UNL1       -0.2728
     24 N         139.4024  144.4595  162.7426 N.am    1  UNL1       -0.2722
     25 C         140.2832  145.6377  162.4497 C.3     1  UNL1        0.1305
     26 C         140.4767  145.1441  161.0464 C.3     1  UNL1        0.2003
     27 F         141.2363  145.6282  159.8471 F       1  UNL1       -0.2336
     28 C         139.5960  143.9658  161.3394 C.3     1  UNL1        0.1305
@<TRIPOS>BOND
     1     1     2    1
     2     2     3   ar
     3     3     4    2
     4     3     5   ar
     5     5    21    1
     6    21    22    1
     7    22    23    2
     8    22    24   am
     9    24    25    1
    10    25    26    1
    11    26    27    1
    12    26    28    1
    13     5     6   ar
    14     6     7   ar
    15     7     8   ar
    16     8    12    1
    17    12    13   ar
    18    13    14   ar
    19    14    15   ar
    20    15    17    1
    21    17    18    1
    22    17    19    1
    23    17    20    1
    24    15    16   ar
    25     8     9   ar
    26     9    10   ar
    27    10    11   ar
    28    11     2   ar
    29    28    24    1
    30    11     6   ar
    31    16    12   ar
@<TRIPOS>MOLECULE
*****
 28 31 0 0 0
SMALL
GASTEIGER

@<TRIPOS>ATOM
      1 C         144.1513  142.1587  160.0105 C.3     1  UNL1        0.1366
      2 N         143.0984  141.7390  160.9930 N.ar    1  UNL1       -0.2630
      3 C         141.8506  140.9704  160.6735 C.ar    1  UNL1        0.3331
      4 O         141.4365  140.4866  159.3154 O.2     1  UNL1       -0.2462
      5 N         141.0895  140.7705  161.9506 N.ar    1  UNL1       -0.2694
      6 C         141.8670  141.4156  163.0594 C.ar    1  UNL1        0.0986
      7 C         141.6049  141.5353  164.5314 C.ar    1  UNL1        0.0224
      8 C         142.5843  142.2536  165.4116 C.ar    1  UNL1        0.0267
      9 C         143.8259  142.8521  164.8198 C.ar    1  UNL1        0.1011
     10 N         144.0880  142.7324  163.3478 N.ar    1  UNL1       -0.2251
     11 C         143.1086  142.0142  162.4675 C.ar    1  UNL1        0.1633
     12 C         142.3222  142.3733  166.8837 C.ar    1  UNL1        0.0309
     13 C         143.3399  142.2243  167.9755 C.ar    1  UNL1        0.0070
     14 C         142.6430  142.4220  169.2889 C.ar    1  UNL1        0.0109
     15 C         141.1945  142.6932  169.0089 C.ar    1  UNL1        0.1009
     16 S         140.9962  142.6631  167.5224 S.2     1  UNL1       -0.0831
     17 C         140.1310  142.9495  170.0353 C.3     1  UNL1        0.4241
     18 F         139.0675  143.2058  171.0616 F       1  UNL1       -0.1654
     19 F         139.6822  141.5224  169.9266 F       1  UNL1       -0.1654
     20 F         140.5798  144.3766  170.1439 F       1  UNL1       -0.1654
     21 C         139.7808  140.0518  162.0938 C.3     1  UNL1        0.1956
     22 C         139.7115  138.7659  162.8631 C.2     1  UNL1        0.2490
     23 O         140.3138  137.5166  162.2916 O.2     1  UNL1       -0.2728
     24 N         139.0400  138.7293  164.2039 N.am    1  UNL1       -0.2722
     25 C         138.7828  137.6684  165.2326 C.3     1  UNL1        0.1305
     26 C         138.0903  138.6775  166.1000 C.3     1  UNL1        0.2003
     27 F         137.4188  138.6409  167.4408 F       1  UNL1       -0.2336
     28 C         138.3475  139.7383  165.0712 C.3     1  UNL1        0.1305
@<TRIPOS>BOND
     1     1     2    1
     2     2     3   ar
     3     3     4    2
     4     3     5   ar
     5     5    21    1
     6    21    22    1
     7    22    23    2
     8    22    24   am
     9    24    25    1
    10    25    26    1
    11    26    27    1
    12    26    28    1
    13     5     6   ar
    14     6     7   ar
    15     7     8   ar
    16     8    12    1
    17    12    13   ar
    18    13    14   ar
    19    14    15   ar
    20    15    17    1
    21    17    18    1
    22    17    19    1
    23    17    20    1
    24    15    16   ar
    25     8     9   ar
    26     9    10   ar
    27    10    11   ar
    28    11     2   ar
    29    28    24    1
    30    11     6   ar
    31    16    12   ar
@<TRIPOS>MOLECULE
*****
 28 31 0 0 0
SMALL
GASTEIGER

@<TRIPOS>ATOM
      1 C         142.2432  138.0079  158.9354 C.3     1  UNL1        0.1366
      2 N         141.7070  139.0714  159.8472 N.ar    1  UNL1       -0.2630
      3 C         141.5952  140.5327  159.5274 C.ar    1  UNL1        0.3331
      4 O         142.0001  141.1870  158.2398 O.2     1  UNL1       -0.2462
      5 N         141.0074  141.2248  160.7214 N.ar    1  UNL1       -0.2694
      6 C         140.7559  140.1912  161.7790 C.ar    1  UNL1        0.0986
      7 C         140.1891  140.2900  163.1643 C.ar    1  UNL1        0.0224
      8 C         140.0546  139.0580  164.0092 C.ar    1  UNL1        0.0267
      9 C         140.4870  137.7272  163.4689 C.ar    1  UNL1        0.1011
     10 N         141.0538  137.6284  162.0836 N.ar    1  UNL1       -0.2251
     11 C         141.1883  138.8604  161.2387 C.ar    1  UNL1        0.1633
     12 C         139.4878  139.1568  165.3945 C.ar    1  UNL1        0.0309
     13 C         138.1975  138.5531  165.8643 C.ar    1  UNL1        0.0070
     14 C         138.0240  138.8998  167.3133 C.ar    1  UNL1        0.0109
     15 C         139.2072  139.7178  167.7391 C.ar    1  UNL1        0.1009
     16 S         140.1118  139.8766  166.5532 S.2     1  UNL1       -0.0831
     17 C         139.4440  140.2784  169.1100 C.3     1  UNL1        0.4241
     18 F         139.6809  140.8391  170.4810 F       1  UNL1       -0.1654
     19 F         140.8231  140.7014  168.6988 F       1  UNL1       -0.1654
     20 F         138.0649  139.8555  169.5213 F       1  UNL1       -0.1654
     21 C         140.7214  142.6927  160.8374 C.3     1  UNL1        0.1956
     22 C         139.3518  143.1611  161.2311 C.2     1  UNL1        0.2490
     23 O         138.2003  142.9914  160.2849 O.2     1  UNL1       -0.2728
     24 N         139.1337  143.7992  162.5710 N.am    1  UNL1       -0.2722
     25 C         137.9504  144.3723  163.2928 C.3     1  UNL1        0.1305
     26 C         138.8254  144.7015  164.4659 C.3     1  UNL1        0.2003
     27 F         138.6073  145.3396  165.8057 F       1  UNL1       -0.2336
     28 C         140.0088  144.1284  163.7440 C.3     1  UNL1        0.1305
@<TRIPOS>BOND
     1     1     2    1
     2     2     3   ar
     3     3     4    2
     4     3     5   ar
     5     5    21    1
     6    21    22    1
     7    22    23    2
     8    22    24   am
     9    24    25    1
    10    25    26    1
    11    26    27    1
    12    26    28    1
    13     5     6   ar
    14     6     7   ar
    15     7     8   ar
    16     8    12    1
    17    12    13   ar
    18    13    14   ar
    19    14    15   ar
    20    15    17    1
    21    17    18    1
    22    17    19    1
    23    17    20    1
    24    15    16   ar
    25     8     9   ar
    26     9    10   ar
    27    10    11   ar
    28    11     2   ar
    29    28    24    1
    30    11     6   ar
    31    16    12   ar
