@<TRIPOS>MOLECULE
*****
 28 32 0 0 0
SMALL
GASTEIGER

@<TRIPOS>ATOM
      1 C         141.3202  141.0711  170.5573 C.3     1  UNL1        0.0475
      2 C         140.8514  141.1185  169.1332 C.3     1  UNL1        0.1727
      3 O         141.4514  142.1080  168.1787 O.3     1  UNL1       -0.4792
      4 C         140.9827  142.1555  166.7546 C.ar    1  UNL1        0.1362
      5 C         141.5827  143.1449  165.8002 C.ar    1  UNL1        0.0366
      6 C         141.1140  143.1924  164.3761 C.ar    1  UNL1        0.0032
      7 C         140.0452  142.2504  163.9065 C.ar    1  UNL1        0.0036
      8 C         139.4452  141.2610  164.8610 C.ar    1  UNL1        0.0008
      9 C         139.9140  141.2135  166.2851 C.ar    1  UNL1        0.0357
     10 C         139.3140  140.2241  167.2396 C.3     1  UNL1        0.1582
     11 C         138.7470  140.1548  165.8525 C.3     1  UNL1        0.2351
     12 O         137.7071  139.0739  165.8303 O.2     1  UNL1       -0.4478
     13 C         137.6313  138.4752  167.2035 C.2     1  UNL1        0.2770
     14 N         136.7222  137.3613  167.6308 N.pl3   1  UNL1       -0.3133
     15 N         138.6244  139.1861  168.0745 N.2     1  UNL1       -0.2202
     16 C         139.7827  140.1766  168.6636 C.3     1  UNL1        0.1174
     17 C         139.9501  140.4527  168.3973 C.3     1  UNL1        0.1502
     18 O         139.7741  140.1625  168.6772 O.3     1  UNL1       -0.3532
     19 C         139.9501  140.4527  168.3973 C.3     1  UNL1        0.1502
     20 H         136.1016  136.9564  166.9826 H       1  UNL1        0.1466
     21 H         136.7460  137.0352  168.5594 H       1  UNL1        0.1466
     22 C         139.5764  142.2979  162.4824 C.ar    1  UNL1        0.0460
     23 C         140.4256  141.7123  161.3933 C.ar    1  UNL1        0.0054
     24 C         139.9569  141.7598  159.9693 C.ar    1  UNL1        0.0208
     25 C         138.6390  142.3929  159.6342 C.ar    1  UNL1        0.1013
     26 N         137.7898  142.9785  160.7232 N.ar    1  UNL1       -0.2165
     27 C         138.2585  142.9311  162.1473 C.ar    1  UNL1        0.2222
     28 F         137.4094  143.5167  163.2363 F       1  UNL1       -0.1832
@<TRIPOS>BOND
     1     2     1    1
     2     2     3    1
     3     3     4    1
     4     4     5   ar
     5     5     6   ar
     6     6     7   ar
     7     7    22    1
     8    22    23   ar
     9    23    24   ar
    10    24    25   ar
    11    25    26   ar
    12    26    27   ar
    13    27    28    1
    14     7     8   ar
    15     8     9   ar
    16     9    10    1
    17    10    11    1
    18    11    12    1
    19    12    13    1
    20    13    14    1
    21    13    15    2
    22    10    16    1
    23    16    17    1
    24    17    18    1
    25    18    19    1
    26    16     2    1
    27     9     4   ar
    28    15    10    1
    29    19    16    1
    30    27    22   ar
    31    14    20    1
    32    14    21    1
@<TRIPOS>MOLECULE
*****
 28 32 0 0 0
SMALL
GASTEIGER

@<TRIPOS>ATOM
      1 C         137.1668  139.9935  160.6895 C.3     1  UNL1        0.0475
      2 C         137.8593  140.5959  161.8760 C.3     1  UNL1        0.1727
      3 O         138.2217  139.7350  163.0497 O.3     1  UNL1       -0.4792
      4 C         138.9141  140.3373  164.2361 C.ar    1  UNL1        0.1362
      5 C         139.2765  139.4765  165.4099 C.ar    1  UNL1        0.0366
      6 C         139.9690  140.0788  166.5963 C.ar    1  UNL1        0.0032
      7 C         140.2991  141.5420  166.6090 C.ar    1  UNL1        0.0036
      8 C         139.9367  142.4028  165.4353 C.ar    1  UNL1        0.0008
      9 C         139.2442  141.8005  164.2488 C.ar    1  UNL1        0.0357
     10 C         138.8818  142.6613  163.0751 C.3     1  UNL1        0.1582
     11 C         139.5686  143.4006  164.1850 C.3     1  UNL1        0.2351
     12 O         139.6944  144.8384  163.7760 O.2     1  UNL1       -0.4478
     13 C         139.0853  144.9876  162.4134 C.2     1  UNL1        0.2770
     14 N         138.9944  146.2590  161.6227 N.pl3   1  UNL1       -0.3133
     15 N         138.5832  143.6421  161.9802 N.2     1  UNL1       -0.2202
     16 C         138.1894  142.0590  161.8887 C.3     1  UNL1        0.1174
     17 C         138.2905  141.8188  162.2162 C.3     1  UNL1        0.1502
     18 O         138.1842  142.0713  161.8719 O.3     1  UNL1       -0.3532
     19 C         138.2905  141.8188  162.2162 C.3     1  UNL1        0.1502
     20 H         139.3549  147.0965  161.9941 H       1  UNL1        0.1466
     21 H         138.5742  146.2561  160.7324 H       1  UNL1        0.1466
     22 C         140.9916  142.1443  167.7955 C.ar    1  UNL1        0.0460
     23 C         140.2015  142.9051  168.8187 C.ar    1  UNL1        0.0054
     24 C         140.8939  143.5074  170.0051 C.ar    1  UNL1        0.0208
     25 C         142.3766  143.3489  170.1684 C.ar    1  UNL1        0.1013
     26 N         143.1667  142.5882  169.1453 N.ar    1  UNL1       -0.2165
     27 C         142.4743  141.9858  167.9588 C.ar    1  UNL1        0.2222
     28 F         143.2644  141.2250  166.9357 F       1  UNL1       -0.1832
@<TRIPOS>BOND
     1     2     1    1
     2     2     3    1
     3     3     4    1
     4     4     5   ar
     5     5     6   ar
     6     6     7   ar
     7     7    22    1
     8    22    23   ar
     9    23    24   ar
    10    24    25   ar
    11    25    26   ar
    12    26    27   ar
    13    27    28    1
    14     7     8   ar
    15     8     9   ar
    16     9    10    1
    17    10    11    1
    18    11    12    1
    19    12    13    1
    20    13    14    1
    21    13    15    2
    22    10    16    1
    23    16    17    1
    24    17    18    1
    25    18    19    1
    26    16     2    1
    27     9     4   ar
    28    15    10    1
    29    19    16    1
    30    27    22   ar
    31    14    20    1
    32    14    21    1
@<TRIPOS>MOLECULE
*****
 28 32 0 0 0
SMALL
GASTEIGER

@<TRIPOS>ATOM
      1 C         136.8975  139.4729  170.9021 C.3     1  UNL1        0.0475
      2 C         137.9644  139.6863  169.8694 C.3     1  UNL1        0.1727
      3 O         137.8170  139.0844  168.5034 O.3     1  UNL1       -0.4792
      4 C         138.8838  139.2977  167.4707 C.ar    1  UNL1        0.1362
      5 C         138.7365  138.6958  166.1047 C.ar    1  UNL1        0.0366
      6 C         139.8032  138.9092  165.0721 C.ar    1  UNL1        0.0032
      7 C         141.0175  139.7245  165.4054 C.ar    1  UNL1        0.0036
      8 C         141.1648  140.3264  166.7714 C.ar    1  UNL1        0.0008
      9 C         140.0979  140.1130  167.8041 C.ar    1  UNL1        0.0357
     10 C         140.2453  140.7149  169.1701 C.3     1  UNL1        0.1582
     11 C         141.3885  141.0127  168.2456 C.3     1  UNL1        0.2351
     12 O         142.3792  141.8574  168.9907 O.2     1  UNL1       -0.4478
     13 C         141.8483  142.0817  170.3755 C.2     1  UNL1        0.2770
     14 N         142.5186  142.8731  171.4592 N.pl3   1  UNL1       -0.3133
     15 N         140.5295  141.3756  170.4864 N.2     1  UNL1       -0.2202
     16 C         139.1785  140.5016  170.2027 C.3     1  UNL1        0.1174
     17 C         139.1374  140.3336  169.8216 C.3     1  UNL1        0.1502
     18 O         139.1806  140.5101  170.2222 O.3     1  UNL1       -0.3532
     19 C         139.1374  140.3336  169.8216 C.3     1  UNL1        0.1502
     20 H         143.3883  143.3021  171.2894 H       1  UNL1        0.1466
     21 H         142.0888  142.9636  172.3403 H       1  UNL1        0.1466
     22 C         142.0842  139.9378  164.3727 C.ar    1  UNL1        0.0460
     23 C         141.8513  140.8933  163.2401 C.ar    1  UNL1        0.0054
     24 C         142.9181  141.1067  162.2074 C.ar    1  UNL1        0.0208
     25 C         144.2178  140.3646  162.3074 C.ar    1  UNL1        0.1013
     26 N         144.4508  139.4091  163.4399 N.ar    1  UNL1       -0.2165
     27 C         143.3840  139.1957  164.4727 C.ar    1  UNL1        0.2222
     28 F         143.6169  138.2402  165.6053 F       1  UNL1       -0.1832
@<TRIPOS>BOND
     1     2     1    1
     2     2     3    1
     3     3     4    1
     4     4     5   ar
     5     5     6   ar
     6     6     7   ar
     7     7    22    1
     8    22    23   ar
     9    23    24   ar
    10    24    25   ar
    11    25    26   ar
    12    26    27   ar
    13    27    28    1
    14     7     8   ar
    15     8     9   ar
    16     9    10    1
    17    10    11    1
    18    11    12    1
    19    12    13    1
    20    13    14    1
    21    13    15    2
    22    10    16    1
    23    16    17    1
    24    17    18    1
    25    18    19    1
    26    16     2    1
    27     9     4   ar
    28    15    10    1
    29    19    16    1
    30    27    22   ar
    31    14    20    1
    32    14    21    1
@<TRIPOS>MOLECULE
*****
 28 32 0 0 0
SMALL
GASTEIGER

@<TRIPOS>ATOM
      1 C         142.9867  138.0069  170.3418 C.3     1  UNL1        0.0475
      2 C         142.5490  139.0984  169.4105 C.3     1  UNL1        0.1727
      3 O         142.9757  139.0733  167.9727 O.3     1  UNL1       -0.4792
      4 C         142.5381  140.1647  167.0414 C.ar    1  UNL1        0.1362
      5 C         142.9647  140.1397  165.6036 C.ar    1  UNL1        0.0366
      6 C         142.5271  141.2311  164.6723 C.ar    1  UNL1        0.0032
      7 C         141.6628  142.3476  165.1789 C.ar    1  UNL1        0.0036
      8 C         141.2362  142.3726  166.6167 C.ar    1  UNL1        0.0008
      9 C         141.6739  141.2811  167.5480 C.ar    1  UNL1        0.0357
     10 C         141.2472  141.3062  168.9858 C.3     1  UNL1        0.1582
     11 C         140.7341  142.4606  168.1770 C.3     1  UNL1        0.2351
     12 O         139.9141  143.3322  169.0815 O.2     1  UNL1       -0.4478
     13 C         139.9205  142.7165  170.4493 C.2     1  UNL1        0.2770
     14 N         139.2250  143.2578  171.6631 N.pl3   1  UNL1       -0.3133
     15 N         140.7444  141.4643  170.3902 N.2     1  UNL1       -0.2202
     16 C         141.6848  140.2148  169.9171 C.3     1  UNL1        0.1174
     17 C         141.8039  140.2078  169.5159 C.3     1  UNL1        0.1502
     18 O         141.6788  140.2152  169.9376 O.3     1  UNL1       -0.3532
     19 C         141.8039  140.2078  169.5159 C.3     1  UNL1        0.1502
     20 H         138.7051  144.0916  171.6017 H       1  UNL1        0.1466
     21 H         139.2885  142.7794  172.5211 H       1  UNL1        0.1466
     22 C         141.2252  143.4390  164.2476 C.ar    1  UNL1        0.0460
     23 C         139.7831  143.5530  163.8508 C.ar    1  UNL1        0.0054
     24 C         139.3455  144.6444  162.9195 C.ar    1  UNL1        0.0208
     25 C         140.3499  145.6218  162.3850 C.ar    1  UNL1        0.1013
     26 N         141.7920  145.5079  162.7818 N.ar    1  UNL1       -0.2165
     27 C         142.2297  144.4164  163.7131 C.ar    1  UNL1        0.2222
     28 F         143.6717  144.3025  164.1099 F       1  UNL1       -0.1832
@<TRIPOS>BOND
     1     2     1    1
     2     2     3    1
     3     3     4    1
     4     4     5   ar
     5     5     6   ar
     6     6     7   ar
     7     7    22    1
     8    22    23   ar
     9    23    24   ar
    10    24    25   ar
    11    25    26   ar
    12    26    27   ar
    13    27    28    1
    14     7     8   ar
    15     8     9   ar
    16     9    10    1
    17    10    11    1
    18    11    12    1
    19    12    13    1
    20    13    14    1
    21    13    15    2
    22    10    16    1
    23    16    17    1
    24    17    18    1
    25    18    19    1
    26    16     2    1
    27     9     4   ar
    28    15    10    1
    29    19    16    1
    30    27    22   ar
    31    14    20    1
    32    14    21    1
@<TRIPOS>MOLECULE
*****
 28 32 0 0 0
SMALL
GASTEIGER

@<TRIPOS>ATOM
      1 C         143.2074  143.4028  170.8196 C.3     1  UNL1        0.0475
      2 C         142.6252  142.6331  169.6712 C.3     1  UNL1        0.1727
      3 O         143.3102  142.6445  168.3368 O.3     1  UNL1       -0.4792
      4 C         142.7281  141.8749  167.1884 C.ar    1  UNL1        0.1362
      5 C         143.4130  141.8863  165.8540 C.ar    1  UNL1        0.0366
      6 C         142.8309  141.1166  164.7056 C.ar    1  UNL1        0.0032
      7 C         141.5638  140.3356  164.8916 C.ar    1  UNL1        0.0036
      8 C         140.8789  140.3242  166.2261 C.ar    1  UNL1        0.0008
      9 C         141.4611  141.0939  167.3745 C.ar    1  UNL1        0.0357
     10 C         140.7761  141.0825  168.7089 C.3     1  UNL1        0.1582
     11 C         140.0794  140.2692  167.6586 C.3     1  UNL1        0.2351
     12 O         138.8560  139.6617  168.2786 O.2     1  UNL1       -0.4478
     13 C         138.7966  140.0995  169.7120 C.2     1  UNL1        0.2770
     14 N         137.7367  139.7249  170.7051 N.pl3   1  UNL1       -0.3133
     15 N         139.9834  140.9776  169.9780 N.2     1  UNL1       -0.2202
     16 C         141.3582  141.8521  169.8573 C.3     1  UNL1        0.1174
     17 C         141.5493  141.8553  169.4850 C.3     1  UNL1        0.1502
     18 O         141.3485  141.8520  169.8763 O.3     1  UNL1       -0.3532
     19 C         141.5493  141.8553  169.4850 C.3     1  UNL1        0.1502
     20 H         136.9928  139.1398  170.4340 H       1  UNL1        0.1466
     21 H         137.7849  140.0643  171.6280 H       1  UNL1        0.1466
     22 C         140.9818  139.5659  163.7433 C.ar    1  UNL1        0.0460
     23 C         140.1967  140.2799  162.6830 C.ar    1  UNL1        0.0054
     24 C         139.6146  139.5103  161.5347 C.ar    1  UNL1        0.0208
     25 C         139.8176  138.0267  161.4465 C.ar    1  UNL1        0.1013
     26 N         140.6026  137.3127  162.5066 N.ar    1  UNL1       -0.2165
     27 C         141.1847  138.0823  163.6551 C.ar    1  UNL1        0.2222
     28 F         141.9697  137.3684  164.7152 F       1  UNL1       -0.1832
@<TRIPOS>BOND
     1     2     1    1
     2     2     3    1
     3     3     4    1
     4     4     5   ar
     5     5     6   ar
     6     6     7   ar
     7     7    22    1
     8    22    23   ar
     9    23    24   ar
    10    24    25   ar
    11    25    26   ar
    12    26    27   ar
    13    27    28    1
    14     7     8   ar
    15     8     9   ar
    16     9    10    1
    17    10    11    1
    18    11    12    1
    19    12    13    1
    20    13    14    1
    21    13    15    2
    22    10    16    1
    23    16    17    1
    24    17    18    1
    25    18    19    1
    26    16     2    1
    27     9     4   ar
    28    15    10    1
    29    19    16    1
    30    27    22   ar
    31    14    20    1
    32    14    21    1
@<TRIPOS>MOLECULE
*****
 28 32 0 0 0
SMALL
GASTEIGER

@<TRIPOS>ATOM
      1 C         142.1472  141.2957  171.0267 C.3     1  UNL1        0.0475
      2 C         141.6581  141.1427  169.6169 C.3     1  UNL1        0.1727
      3 O         140.4141  140.3530  169.3361 O.3     1  UNL1       -0.4792
      4 C         139.9251  140.2000  167.9264 C.ar    1  UNL1        0.1362
      5 C         138.6811  139.4103  167.6457 C.ar    1  UNL1        0.0366
      6 C         138.1920  139.2573  166.2359 C.ar    1  UNL1        0.0032
      7 C         138.9470  139.8939  165.1069 C.ar    1  UNL1        0.0036
      8 C         140.1911  140.6836  165.3876 C.ar    1  UNL1        0.0008
      9 C         140.6801  140.8366  166.7974 C.ar    1  UNL1        0.0357
     10 C         141.9241  141.6263  167.0782 C.3     1  UNL1        0.1582
     11 C         141.5584  141.5602  165.6249 C.3     1  UNL1        0.2351
     12 O         142.5857  142.3339  164.8527 O.2     1  UNL1       -0.4478
     13 C         143.5863  142.8781  165.8288 C.2     1  UNL1        0.2770
     14 N         144.7852  143.7131  165.4891 N.pl3   1  UNL1       -0.3133
     15 N         143.1774  142.4408  167.2042 N.2     1  UNL1       -0.2202
     16 C         142.4131  141.7793  168.4879 C.3     1  UNL1        0.1174
     17 C         142.0661  141.5590  168.4096 C.3     1  UNL1        0.1502
     18 O         142.4309  141.7906  168.4919 O.3     1  UNL1       -0.3532
     19 C         142.0661  141.5590  168.4096 C.3     1  UNL1        0.1502
     20 H         144.9708  143.9495  164.5516 H       1  UNL1        0.1466
     21 H         145.3865  144.0247  166.2036 H       1  UNL1        0.1466
     22 C         138.4580  139.7409  163.6971 C.ar    1  UNL1        0.0460
     23 C         138.6647  138.4464  162.9679 C.ar    1  UNL1        0.0054
     24 C         138.1756  138.2934  161.5582 C.ar    1  UNL1        0.0208
     25 C         137.4799  139.4348  160.8776 C.ar    1  UNL1        0.1013
     26 N         137.2733  140.7292  161.6067 N.ar    1  UNL1       -0.2165
     27 C         137.7623  140.8823  163.0165 C.ar    1  UNL1        0.2222
     28 F         137.5557  142.1767  163.7456 F       1  UNL1       -0.1832
@<TRIPOS>BOND
     1     2     1    1
     2     2     3    1
     3     3     4    1
     4     4     5   ar
     5     5     6   ar
     6     6     7   ar
     7     7    22    1
     8    22    23   ar
     9    23    24   ar
    10    24    25   ar
    11    25    26   ar
    12    26    27   ar
    13    27    28    1
    14     7     8   ar
    15     8     9   ar
    16     9    10    1
    17    10    11    1
    18    11    12    1
    19    12    13    1
    20    13    14    1
    21    13    15    2
    22    10    16    1
    23    16    17    1
    24    17    18    1
    25    18    19    1
    26    16     2    1
    27     9     4   ar
    28    15    10    1
    29    19    16    1
    30    27    22   ar
    31    14    20    1
    32    14    21    1
@<TRIPOS>MOLECULE
*****
 28 32 0 0 0
SMALL
GASTEIGER

@<TRIPOS>ATOM
      1 C         140.1857  142.2033  170.4952 C.3     1  UNL1        0.0475
      2 C         140.4205  141.5948  169.1443 C.3     1  UNL1        0.1727
      3 O         141.5702  142.0610  168.3013 O.3     1  UNL1       -0.4792
      4 C         141.8050  141.4526  166.9505 C.ar    1  UNL1        0.1362
      5 C         142.9547  141.9189  166.1075 C.ar    1  UNL1        0.0366
      6 C         143.1895  141.3105  164.7567 C.ar    1  UNL1        0.0032
      7 C         142.2745  140.2357  164.2489 C.ar    1  UNL1        0.0036
      8 C         141.1247  139.7695  165.0919 C.ar    1  UNL1        0.0008
      9 C         140.8900  140.3780  166.4428 C.ar    1  UNL1        0.0357
     10 C         139.7403  139.9117  167.2858 C.3     1  UNL1        0.1582
     11 C         139.8491  139.2135  165.9626 C.3     1  UNL1        0.2351
     12 O         138.7318  138.2168  165.8711 O.2     1  UNL1       -0.4478
     13 C         137.9325  138.2989  167.1377 C.2     1  UNL1        0.2770
     14 N         136.7225  137.4777  167.4714 N.pl3   1  UNL1       -0.3133
     15 N         138.5558  139.3464  168.0121 N.2     1  UNL1       -0.2202
     16 C         139.5055  140.5201  168.6366 C.3     1  UNL1        0.1174
     17 C         139.8263  140.6502  168.4014 C.3     1  UNL1        0.1502
     18 O         139.4891  140.5135  168.6486 O.3     1  UNL1       -0.3532
     19 C         139.8263  140.6502  168.4014 C.3     1  UNL1        0.1502
     20 H         136.3873  136.8114  166.8288 H       1  UNL1        0.1466
     21 H         136.2635  137.6050  168.3330 H       1  UNL1        0.1466
     22 C         142.5093  139.6273  162.8981 C.ar    1  UNL1        0.0460
     23 C         141.4306  139.6739  161.8568 C.ar    1  UNL1        0.0054
     24 C         141.6653  139.0655  160.5060 C.ar    1  UNL1        0.0208
     25 C         142.9788  138.4105  160.1965 C.ar    1  UNL1        0.1013
     26 N         144.0574  138.3638  161.2377 N.ar    1  UNL1       -0.2165
     27 C         143.8227  138.9722  162.5886 C.ar    1  UNL1        0.2222
     28 F         144.9013  138.9256  163.6299 F       1  UNL1       -0.1832
@<TRIPOS>BOND
     1     2     1    1
     2     2     3    1
     3     3     4    1
     4     4     5   ar
     5     5     6   ar
     6     6     7   ar
     7     7    22    1
     8    22    23   ar
     9    23    24   ar
    10    24    25   ar
    11    25    26   ar
    12    26    27   ar
    13    27    28    1
    14     7     8   ar
    15     8     9   ar
    16     9    10    1
    17    10    11    1
    18    11    12    1
    19    12    13    1
    20    13    14    1
    21    13    15    2
    22    10    16    1
    23    16    17    1
    24    17    18    1
    25    18    19    1
    26    16     2    1
    27     9     4   ar
    28    15    10    1
    29    19    16    1
    30    27    22   ar
    31    14    20    1
    32    14    21    1
@<TRIPOS>MOLECULE
*****
 28 32 0 0 0
SMALL
GASTEIGER

@<TRIPOS>ATOM
      1 C         143.3461  137.2576  170.6197 C.3     1  UNL1        0.0475
      2 C         142.9907  138.3308  169.6338 C.3     1  UNL1        0.1727
      3 O         143.4527  138.2247  168.2106 O.3     1  UNL1       -0.4792
      4 C         143.0973  139.2978  167.2247 C.ar    1  UNL1        0.1362
      5 C         143.5593  139.1917  165.8016 C.ar    1  UNL1        0.0366
      6 C         143.2039  140.2648  164.8157 C.ar    1  UNL1        0.0032
      7 C         142.3864  141.4441  165.2529 C.ar    1  UNL1        0.0036
      8 C         141.9244  141.5502  166.6760 C.ar    1  UNL1        0.0008
      9 C         142.2799  140.4770  167.6619 C.ar    1  UNL1        0.0357
     10 C         141.8178  140.5831  169.0851 C.3     1  UNL1        0.1582
     11 C         141.3871  141.7280  168.2168 C.3     1  UNL1        0.2351
     12 O         140.5906  142.6770  169.0625 O.2     1  UNL1       -0.4478
     13 C         140.5290  142.1187  170.4533 C.2     1  UNL1        0.2770
     14 N         139.8315  142.7445  171.6245 N.pl3   1  UNL1       -0.3133
     15 N         141.2875  140.8246  170.4673 N.2     1  UNL1       -0.2202
     16 C         142.1732  139.5100  170.0710 C.3     1  UNL1        0.1174
     17 C         142.3021  139.4804  169.6739 C.3     1  UNL1        0.1502
     18 O         142.1666  139.5115  170.0913 O.3     1  UNL1       -0.3532
     19 C         142.3021  139.4804  169.6739 C.3     1  UNL1        0.1502
     20 H         139.3578  143.6006  171.5154 H       1  UNL1        0.1466
     21 H         139.8474  142.2992  172.5024 H       1  UNL1        0.1466
     22 C         142.0310  142.5173  164.2670 C.ar    1  UNL1        0.0460
     23 C         142.7147  143.8509  164.3310 C.ar    1  UNL1        0.0054
     24 C         142.3593  144.9240  163.3451 C.ar    1  UNL1        0.0208
     25 C         141.3202  144.6636  162.2952 C.ar    1  UNL1        0.1013
     26 N         140.6365  143.3300  162.2311 N.ar    1  UNL1       -0.2165
     27 C         140.9919  142.2568  163.2170 C.ar    1  UNL1        0.2222
     28 F         140.3083  140.9232  163.1529 F       1  UNL1       -0.1832
@<TRIPOS>BOND
     1     2     1    1
     2     2     3    1
     3     3     4    1
     4     4     5   ar
     5     5     6   ar
     6     6     7   ar
     7     7    22    1
     8    22    23   ar
     9    23    24   ar
    10    24    25   ar
    11    25    26   ar
    12    26    27   ar
    13    27    28    1
    14     7     8   ar
    15     8     9   ar
    16     9    10    1
    17    10    11    1
    18    11    12    1
    19    12    13    1
    20    13    14    1
    21    13    15    2
    22    10    16    1
    23    16    17    1
    24    17    18    1
    25    18    19    1
    26    16     2    1
    27     9     4   ar
    28    15    10    1
    29    19    16    1
    30    27    22   ar
    31    14    20    1
    32    14    21    1
@<TRIPOS>MOLECULE
*****
 28 32 0 0 0
SMALL
GASTEIGER

@<TRIPOS>ATOM
      1 C         144.1591  138.8473  160.7396 C.3     1  UNL1        0.0475
      2 C         143.7962  139.4653  162.0574 C.3     1  UNL1        0.1727
      3 O         143.7357  138.6163  163.2926 O.3     1  UNL1       -0.4792
      4 C         143.3728  139.2342  164.6103 C.ar    1  UNL1        0.1362
      5 C         143.3124  138.3852  165.8455 C.ar    1  UNL1        0.0366
      6 C         142.9494  139.0031  167.1632 C.ar    1  UNL1        0.0032
      7 C         142.6469  140.4700  167.2458 C.ar    1  UNL1        0.0036
      8 C         142.7073  141.3190  166.0107 C.ar    1  UNL1        0.0008
      9 C         143.0703  140.7010  164.6929 C.ar    1  UNL1        0.0357
     10 C         143.1307  141.5500  163.4577 C.3     1  UNL1        0.1582
     11 C         142.7551  142.3043  164.6987 C.3     1  UNL1        0.2351
     12 O         142.5429  143.7406  164.3217 O.2     1  UNL1       -0.4478
     13 C         142.7873  143.8740  162.8479 C.2     1  UNL1        0.2770
     14 N         142.6862  145.1391  162.0483 N.pl3   1  UNL1       -0.3133
     15 N         143.1506  142.5201  162.3138 N.2     1  UNL1       -0.2202
     16 C         143.4936  140.9321  162.1400 C.3     1  UNL1        0.1174
     17 C         143.4768  140.6952  162.4846 C.3     1  UNL1        0.1502
     18 O         143.4945  140.9442  162.1224 O.3     1  UNL1       -0.3532
     19 C         143.4768  140.6952  162.4846 C.3     1  UNL1        0.1502
     20 H         142.4396  145.9830  162.4913 H       1  UNL1        0.1466
     21 H         142.8666  145.1256  161.0806 H       1  UNL1        0.1466
     22 C         142.2839  141.0879  168.5636 C.ar    1  UNL1        0.0460
     23 C         143.1873  142.1105  169.1867 C.ar    1  UNL1        0.0054
     24 C         142.8244  142.7283  170.5044 C.ar    1  UNL1        0.0208
     25 C         141.5580  142.3237  171.1991 C.ar    1  UNL1        0.1013
     26 N         140.6546  141.3011  170.5761 N.ar    1  UNL1       -0.2165
     27 C         141.0176  140.6832  169.2582 C.ar    1  UNL1        0.2222
     28 F         140.1142  139.6606  168.6352 F       1  UNL1       -0.1832
@<TRIPOS>BOND
     1     2     1    1
     2     2     3    1
     3     3     4    1
     4     4     5   ar
     5     5     6   ar
     6     6     7   ar
     7     7    22    1
     8    22    23   ar
     9    23    24   ar
    10    24    25   ar
    11    25    26   ar
    12    26    27   ar
    13    27    28    1
    14     7     8   ar
    15     8     9   ar
    16     9    10    1
    17    10    11    1
    18    11    12    1
    19    12    13    1
    20    13    14    1
    21    13    15    2
    22    10    16    1
    23    16    17    1
    24    17    18    1
    25    18    19    1
    26    16     2    1
    27     9     4   ar
    28    15    10    1
    29    19    16    1
    30    27    22   ar
    31    14    20    1
    32    14    21    1
