@<TRIPOS>MOLECULE
*****
 38 42 0 0 0
SMALL
GASTEIGER

@<TRIPOS>ATOM
      1 C         139.5071  140.6860  164.5092 C.3     1  UNL1        0.0760
      2 C         139.0537  139.8521  166.9277 C.ar    1  UNL1        0.1351
      3 C         139.4397  139.7954  168.3760 C.ar    1  UNL1        0.0366
      4 C         140.6652  140.5163  168.8544 C.ar    1  UNL1        0.0030
      5 C         141.0511  140.4596  170.3028 C.ar    1  UNL1        0.0006
      6 C         142.2765  141.1804  170.7811 C.ar    1  UNL1        0.0067
      7 C         143.1160  141.9578  169.8110 C.ar    1  UNL1        0.0346
      8 BR        144.3414  142.6786  170.2894 Br      1  UNL1       -0.0490
      9 C         142.7300  142.0144  168.3626 C.ar    1  UNL1        0.0067
     10 C         141.5046  141.2937  167.8843 C.ar    1  UNL1        0.0004
     11 C         141.1186  141.3502  166.4359 C.ar    1  UNL1       -0.0009
     12 C         139.8932  140.6294  165.9576 C.ar    1  UNL1        0.0181
     13 C         137.3359  137.9198  167.1842 C.3     1  UNL1        0.2525
     14 O         137.8283  139.1312  166.4493 O.3     1  UNL1       -0.4717
     15 C         138.8878  141.9308  163.9462 C.ar    1  UNL1       -0.0157
     16 C         138.3818  143.0000  164.8685 C.ar    1  UNL1       -0.0039
     17 C         137.7624  144.2447  164.3055 C.ar    1  UNL1       -0.0003
     18 C         137.6491  144.4203  162.8202 C.ar    1  UNL1       -0.0000
     19 C         138.1551  143.3511  161.8978 C.ar    1  UNL1       -0.0003
     20 C         138.7745  142.1063  162.4608 C.ar    1  UNL1       -0.0039
     21 C         139.7405  139.4979  163.6239 C.3     1  UNL1        0.1158
     22 O         138.2588  139.3107  163.4846 O.3     1  UNL1       -0.3820
     23 H         137.8207  139.5741  164.3090 H       1  UNL1        0.2107
     24 C         141.2222  139.6851  163.7631 C.ar    1  UNL1        0.0036
     25 C         142.0324  138.6973  164.5493 C.ar    1  UNL1       -0.0023
     26 C         143.5141  138.8846  164.6886 C.ar    1  UNL1       -0.0032
     27 C         144.1857  140.0595  164.0417 C.ar    1  UNL1       -0.0072
     28 C         143.3756  141.0472  163.2556 C.ar    1  UNL1        0.0437
     29 C         141.8938  140.8600  163.1163 C.ar    1  UNL1        0.0122
     30 N         144.3076  142.1004  162.7339 N.pl3   1  UNL1       -0.3057
     31 C         143.9213  143.2828  161.8957 C.3     1  UNL1        0.1122
     32 C         145.6938  141.7635  163.1977 C.3     1  UNL1        0.0955
     33 C         145.6184  140.5022  164.0060 C.3     1  UNL1        0.0490
     34 C         139.9738  138.3098  162.7385 C.3     1  UNL1        0.0491
     35 C         139.1562  138.1298  161.4939 C.3     1  UNL1        0.0750
     36 N         139.1679  139.1868  160.4295 N.3     1  UNL1       -0.2702
     37 C         140.4696  139.6436  159.8405 C.3     1  UNL1        0.0897
     38 C         137.8780  139.7868  159.9542 C.3     1  UNL1        0.0897
@<TRIPOS>BOND
     1    13    14    1
     2    14     2    1
     3     2     3   ar
     4     3     4   ar
     5     4     5   ar
     6     5     6   ar
     7     6     7   ar
     8     7     8    1
     9     7     9   ar
    10     9    10   ar
    11    10    11   ar
    12    11    12   ar
    13     1    12    1
    14     1    15    1
    15    15    16   ar
    16    16    17   ar
    17    17    18   ar
    18    18    19   ar
    19    19    20   ar
    20     1    21    1
    21    21    22    1
    22    21    34    1
    23    34    35    1
    24    35    36    1
    25    36    37    1
    26    36    38    1
    27    21    24    1
    28    24    25   ar
    29    25    26   ar
    30    26    27   ar
    31    27    28   ar
    32    28    29   ar
    33    28    30    1
    34    30    31    1
    35    30    32    1
    36    32    33    1
    37    12     2   ar
    38    20    15   ar
    39    29    24   ar
    40    10     4   ar
    41    33    27    1
    42    22    23    1
@<TRIPOS>MOLECULE
*****
 38 42 0 0 0
SMALL
GASTEIGER

@<TRIPOS>ATOM
      1 C         141.5711  140.3456  165.9439 C.3     1  UNL1        0.0760
      2 C         143.5481  139.3088  164.6146 C.ar    1  UNL1        0.1351
      3 C         144.1796  138.9349  163.3065 C.ar    1  UNL1        0.0366
      4 C         143.4656  139.2236  162.0192 C.ar    1  UNL1        0.0030
      5 C         144.0971  138.8497  160.7111 C.ar    1  UNL1        0.0006
      6 C         143.3831  139.1384  159.4239 C.ar    1  UNL1        0.0067
      7 C         142.0376  139.8012  159.4449 C.ar    1  UNL1        0.0346
      8 BR        141.3236  140.0900  158.1577 Br      1  UNL1       -0.0490
      9 C         141.4061  140.1752  160.7531 C.ar    1  UNL1        0.0067
     10 C         142.1201  139.8864  162.0402 C.ar    1  UNL1        0.0004
     11 C         141.4886  140.2604  163.3485 C.ar    1  UNL1       -0.0009
     12 C         142.2026  139.9716  164.6356 C.ar    1  UNL1        0.0181
     13 C         144.0474  137.7105  166.6011 C.3     1  UNL1        0.2525
     14 O         144.2620  139.0201  165.9018 O.3     1  UNL1       -0.4717
     15 C         140.2746  139.7152  166.3582 C.ar    1  UNL1       -0.0157
     16 C         139.6173  140.1263  167.6423 C.ar    1  UNL1       -0.0039
     17 C         138.3208  139.4959  168.0566 C.ar    1  UNL1       -0.0003
     18 C         137.6816  138.4543  167.1869 C.ar    1  UNL1       -0.0000
     19 C         138.3389  138.0431  165.9027 C.ar    1  UNL1       -0.0003
     20 C         139.6354  138.6736  165.4884 C.ar    1  UNL1       -0.0039
     21 C         142.2361  141.3500  166.8377 C.3     1  UNL1        0.1158
     22 O         142.4512  140.2861  167.8730 O.3     1  UNL1       -0.3820
     23 H         141.7135  139.6568  167.8480 H       1  UNL1        0.2107
     24 C         142.0210  142.4138  165.8023 C.ar    1  UNL1        0.0036
     25 C         143.1986  143.0527  165.1276 C.ar    1  UNL1       -0.0023
     26 C         142.9835  144.1165  164.0923 C.ar    1  UNL1       -0.0032
     27 C         141.5909  144.5415  163.7316 C.ar    1  UNL1       -0.0072
     28 C         140.4134  143.9026  164.4063 C.ar    1  UNL1        0.0437
     29 C         140.6284  142.8387  165.4417 C.ar    1  UNL1        0.0122
     30 N         139.1667  144.5226  163.8482 N.pl3   1  UNL1       -0.3057
     31 C         137.7600  144.1805  164.2408 C.3     1  UNL1        0.1122
     32 C         139.5738  145.5447  162.8286 C.3     1  UNL1        0.0955
     33 C         141.0720  145.5564  162.7566 C.3     1  UNL1        0.0490
     34 C         142.9011  142.3543  167.7315 C.3     1  UNL1        0.0491
     35 C         142.8115  142.2076  169.2216 C.3     1  UNL1        0.0750
     36 N         141.4895  142.3655  169.9127 N.3     1  UNL1       -0.2702
     37 C         140.5279  143.4237  169.4593 C.3     1  UNL1        0.0897
     38 C         141.1291  141.4652  171.0570 C.3     1  UNL1        0.0897
@<TRIPOS>BOND
     1    13    14    1
     2    14     2    1
     3     2     3   ar
     4     3     4   ar
     5     4     5   ar
     6     5     6   ar
     7     6     7   ar
     8     7     8    1
     9     7     9   ar
    10     9    10   ar
    11    10    11   ar
    12    11    12   ar
    13     1    12    1
    14     1    15    1
    15    15    16   ar
    16    16    17   ar
    17    17    18   ar
    18    18    19   ar
    19    19    20   ar
    20     1    21    1
    21    21    22    1
    22    21    34    1
    23    34    35    1
    24    35    36    1
    25    36    37    1
    26    36    38    1
    27    21    24    1
    28    24    25   ar
    29    25    26   ar
    30    26    27   ar
    31    27    28   ar
    32    28    29   ar
    33    28    30    1
    34    30    31    1
    35    30    32    1
    36    32    33    1
    37    12     2   ar
    38    20    15   ar
    39    29    24   ar
    40    10     4   ar
    41    33    27    1
    42    22    23    1
@<TRIPOS>MOLECULE
*****
 38 42 0 0 0
SMALL
GASTEIGER

@<TRIPOS>ATOM
      1 C         140.9519  140.0485  165.9030 C.3     1  UNL1        0.0760
      2 C         143.1670  139.3840  164.7189 C.ar    1  UNL1        0.1351
      3 C         143.9489  139.1558  163.4593 C.ar    1  UNL1        0.0366
      4 C         143.2977  139.3638  162.1241 C.ar    1  UNL1        0.0030
      5 C         144.0796  139.1356  160.8646 C.ar    1  UNL1        0.0006
      6 C         143.4283  139.3437  159.5295 C.ar    1  UNL1        0.0067
      7 C         141.9951  139.7799  159.4539 C.ar    1  UNL1        0.0346
      8 BR        141.3438  139.9879  158.1188 Br      1  UNL1       -0.0490
      9 C         141.2132  140.0081  160.7135 C.ar    1  UNL1        0.0067
     10 C         141.8645  139.8001  162.0486 C.ar    1  UNL1        0.0004
     11 C         141.0826  140.0283  163.3082 C.ar    1  UNL1       -0.0009
     12 C         141.7338  139.8203  164.6433 C.ar    1  UNL1        0.0181
     13 C         143.9722  137.7896  166.6055 C.3     1  UNL1        0.2525
     14 O         143.8183  139.1760  166.0541 O.3     1  UNL1       -0.4717
     15 C         139.7659  139.1852  166.2162 C.ar    1  UNL1       -0.0157
     16 C         138.8586  139.5422  167.3561 C.ar    1  UNL1       -0.0039
     17 C         137.6726  138.6790  167.6694 C.ar    1  UNL1       -0.0003
     18 C         137.3938  137.4587  166.8428 C.ar    1  UNL1       -0.0000
     19 C         138.3012  137.1017  165.7029 C.ar    1  UNL1       -0.0003
     20 C         139.4872  137.9649  165.3896 C.ar    1  UNL1       -0.0039
     21 C         141.3561  141.1398  166.8492 C.3     1  UNL1        0.1158
     22 O         141.8496  140.1120  167.8239 O.3     1  UNL1       -0.3820
     23 H         141.2945  139.3187  167.7660 H       1  UNL1        0.2107
     24 C         140.8625  142.1677  165.8746 C.ar    1  UNL1        0.0036
     25 C         139.3890  142.3727  165.6826 C.ar    1  UNL1       -0.0023
     26 C         138.8955  143.4005  164.7080 C.ar    1  UNL1       -0.0032
     27 C         139.8754  144.2233  163.9252 C.ar    1  UNL1       -0.0072
     28 C         141.3488  144.0183  164.1171 C.ar    1  UNL1        0.0437
     29 C         141.8424  142.9905  165.0918 C.ar    1  UNL1        0.0122
     30 N         142.0713  144.9711  163.2115 N.pl3   1  UNL1       -0.3057
     31 C         143.5594  145.1063  163.0805 C.3     1  UNL1        0.1122
     32 C         141.0442  145.7650  162.4598 C.3     1  UNL1        0.0955
     33 C         139.6871  145.3028  162.9010 C.3     1  UNL1        0.0490
     34 C         141.7602  142.2312  167.7955 C.3     1  UNL1        0.0491
     35 C         141.9930  141.9197  169.2442 C.3     1  UNL1        0.0750
     36 N         140.8283  141.7983  170.1818 N.3     1  UNL1       -0.2702
     37 C         139.9277  142.9748  170.4153 C.3     1  UNL1        0.0897
     38 C         140.5644  140.5003  170.8858 C.3     1  UNL1        0.0897
@<TRIPOS>BOND
     1    13    14    1
     2    14     2    1
     3     2     3   ar
     4     3     4   ar
     5     4     5   ar
     6     5     6   ar
     7     6     7   ar
     8     7     8    1
     9     7     9   ar
    10     9    10   ar
    11    10    11   ar
    12    11    12   ar
    13     1    12    1
    14     1    15    1
    15    15    16   ar
    16    16    17   ar
    17    17    18   ar
    18    18    19   ar
    19    19    20   ar
    20     1    21    1
    21    21    22    1
    22    21    34    1
    23    34    35    1
    24    35    36    1
    25    36    37    1
    26    36    38    1
    27    21    24    1
    28    24    25   ar
    29    25    26   ar
    30    26    27   ar
    31    27    28   ar
    32    28    29   ar
    33    28    30    1
    34    30    31    1
    35    30    32    1
    36    32    33    1
    37    12     2   ar
    38    20    15   ar
    39    29    24   ar
    40    10     4   ar
    41    33    27    1
    42    22    23    1
@<TRIPOS>MOLECULE
*****
 38 42 0 0 0
SMALL
GASTEIGER

@<TRIPOS>ATOM
      1 C         140.2971  139.6134  164.4857 C.3     1  UNL1        0.0760
      2 C         139.1003  139.3835  166.7803 C.ar    1  UNL1        0.1351
      3 C         139.0029  139.7340  168.2355 C.ar    1  UNL1        0.0366
      4 C         140.0050  140.6648  168.8515 C.ar    1  UNL1        0.0030
      5 C         139.9076  141.0153  170.3067 C.ar    1  UNL1        0.0006
      6 C         140.9096  141.9461  170.9226 C.ar    1  UNL1        0.0067
      7 C         142.0091  142.5265  170.0833 C.ar    1  UNL1        0.0346
      8 BR        143.0112  143.4573  170.6994 Br      1  UNL1       -0.0490
      9 C         142.1065  142.1760  168.6281 C.ar    1  UNL1        0.0067
     10 C         141.1045  141.2452  168.0122 C.ar    1  UNL1        0.0004
     11 C         141.2018  140.8947  166.5569 C.ar    1  UNL1       -0.0009
     12 C         140.1998  139.9639  165.9410 C.ar    1  UNL1        0.0181
     13 C         137.2869  137.5406  167.0360 C.3     1  UNL1        0.2525
     14 O         138.0982  138.4527  166.1643 O.3     1  UNL1       -0.4717
     15 C         141.6345  139.3211  163.8726 C.ar    1  UNL1       -0.0157
     16 C         142.8620  140.0151  164.3841 C.ar    1  UNL1       -0.0039
     17 C         144.1993  139.7227  163.7710 C.ar    1  UNL1       -0.0003
     18 C         144.3093  138.7365  162.6462 C.ar    1  UNL1       -0.0000
     19 C         143.0818  138.0424  162.1346 C.ar    1  UNL1       -0.0003
     20 C         141.7444  138.3347  162.7478 C.ar    1  UNL1       -0.0039
     21 C         139.0572  139.5552  163.6437 C.3     1  UNL1        0.1158
     22 O         139.0455  138.0601  163.7643 O.3     1  UNL1       -0.3820
     23 H         139.9573  137.7318  163.8040 H       1  UNL1        0.2107
     24 C         139.0689  141.0502  163.5231 C.ar    1  UNL1        0.0036
     25 C         138.1147  141.8757  164.3345 C.ar    1  UNL1       -0.0023
     26 C         138.1264  143.3707  164.2139 C.ar    1  UNL1       -0.0032
     27 C         139.0923  144.0405  163.2820 C.ar    1  UNL1       -0.0072
     28 C         140.0465  143.2151  162.4707 C.ar    1  UNL1        0.0437
     29 C         140.0348  141.7200  162.5912 C.ar    1  UNL1        0.0122
     30 N         140.8782  144.1487  161.6420 N.pl3   1  UNL1       -0.3057
     31 C         141.9601  143.7500  160.6827 C.3     1  UNL1        0.1122
     32 C         140.4380  145.5511  161.9413 C.3     1  UNL1        0.0955
     33 C         139.3343  145.4842  162.9548 C.3     1  UNL1        0.0490
     34 C         137.8172  139.4970  162.8017 C.3     1  UNL1        0.0491
     35 C         137.8107  138.7013  161.5301 C.3     1  UNL1        0.0750
     36 N         138.5033  139.2318  160.3099 N.3     1  UNL1       -0.2702
     37 C         138.0270  140.5021  159.6699 C.3     1  UNL1        0.0897
     38 C         139.6720  138.4921  159.7296 C.3     1  UNL1        0.0897
@<TRIPOS>BOND
     1    13    14    1
     2    14     2    1
     3     2     3   ar
     4     3     4   ar
     5     4     5   ar
     6     5     6   ar
     7     6     7   ar
     8     7     8    1
     9     7     9   ar
    10     9    10   ar
    11    10    11   ar
    12    11    12   ar
    13     1    12    1
    14     1    15    1
    15    15    16   ar
    16    16    17   ar
    17    17    18   ar
    18    18    19   ar
    19    19    20   ar
    20     1    21    1
    21    21    22    1
    22    21    34    1
    23    34    35    1
    24    35    36    1
    25    36    37    1
    26    36    38    1
    27    21    24    1
    28    24    25   ar
    29    25    26   ar
    30    26    27   ar
    31    27    28   ar
    32    28    29   ar
    33    28    30    1
    34    30    31    1
    35    30    32    1
    36    32    33    1
    37    12     2   ar
    38    20    15   ar
    39    29    24   ar
    40    10     4   ar
    41    33    27    1
    42    22    23    1
@<TRIPOS>MOLECULE
*****
 38 42 0 0 0
SMALL
GASTEIGER

@<TRIPOS>ATOM
      1 C         140.3918  139.3920  164.2924 C.3     1  UNL1        0.0760
      2 C         138.8065  139.8550  162.2868 C.ar    1  UNL1        0.1351
      3 C         138.5282  139.8098  160.8136 C.ar    1  UNL1        0.0366
      4 C         139.5570  139.2565  159.8725 C.ar    1  UNL1        0.0030
      5 C         139.2787  139.2113  158.3993 C.ar    1  UNL1        0.0006
      6 C         140.3075  138.6580  157.4584 C.ar    1  UNL1        0.0067
      7 C         141.6146  138.1498  157.9907 C.ar    1  UNL1        0.0346
      8 BR        142.6434  137.5965  157.0497 Br      1  UNL1       -0.0490
      9 C         141.8929  138.1950  159.4639 C.ar    1  UNL1        0.0067
     10 C         140.8641  138.7483  160.4048 C.ar    1  UNL1        0.0004
     11 C         141.1423  138.7935  161.8782 C.ar    1  UNL1       -0.0009
     12 C         140.1136  139.3468  162.8191 C.ar    1  UNL1        0.0181
     13 C         137.3061  141.8241  163.0753 C.3     1  UNL1        0.2525
     14 O         137.7777  140.4083  163.2278 O.3     1  UNL1       -0.4717
     15 C         139.3913  138.8363  165.2620 C.ar    1  UNL1       -0.0157
     16 C         138.8632  137.4442  165.0796 C.ar    1  UNL1       -0.0039
     17 C         137.8627  136.8885  166.0492 C.ar    1  UNL1       -0.0003
     18 C         137.3901  137.7249  167.2012 C.ar    1  UNL1       -0.0000
     19 C         137.9182  139.1171  167.3837 C.ar    1  UNL1       -0.0003
     20 C         138.9187  139.6727  166.4141 C.ar    1  UNL1       -0.0039
     21 C         141.6706  139.9928  164.7961 C.3     1  UNL1        0.1158
     22 O         142.1676  138.6264  165.1644 O.3     1  UNL1       -0.3820
     23 H         141.4203  138.0754  165.4455 H       1  UNL1        0.2107
     24 C         141.1736  141.3593  164.4278 C.ar    1  UNL1        0.0036
     25 C         140.3175  142.1302  165.3885 C.ar    1  UNL1       -0.0023
     26 C         139.8205  143.4966  165.0202 C.ar    1  UNL1       -0.0032
     27 C         140.1795  144.0923  163.6912 C.ar    1  UNL1       -0.0072
     28 C         141.0356  143.3215  162.7305 C.ar    1  UNL1        0.0437
     29 C         141.5326  141.9550  163.0988 C.ar    1  UNL1        0.0122
     30 N         141.2244  144.1607  161.5017 N.pl3   1  UNL1       -0.3057
     31 C         142.0140  143.7776  160.2852 C.3     1  UNL1        0.1122
     32 C         140.4850  145.4502  161.7029 C.3     1  UNL1        0.0955
     33 C         139.8392  145.4079  163.0561 C.3     1  UNL1        0.0490
     34 C         142.9493  140.5937  165.2998 C.3     1  UNL1        0.0491
     35 C         144.2675  140.0676  164.8143 C.3     1  UNL1        0.0750
     36 N         144.8600  140.5903  163.5392 N.3     1  UNL1       -0.2702
     37 C         145.8315  141.7326  163.5767 C.3     1  UNL1        0.0897
     38 C         144.4810  139.9708  162.2268 C.3     1  UNL1        0.0897
@<TRIPOS>BOND
     1    13    14    1
     2    14     2    1
     3     2     3   ar
     4     3     4   ar
     5     4     5   ar
     6     5     6   ar
     7     6     7   ar
     8     7     8    1
     9     7     9   ar
    10     9    10   ar
    11    10    11   ar
    12    11    12   ar
    13     1    12    1
    14     1    15    1
    15    15    16   ar
    16    16    17   ar
    17    17    18   ar
    18    18    19   ar
    19    19    20   ar
    20     1    21    1
    21    21    22    1
    22    21    34    1
    23    34    35    1
    24    35    36    1
    25    36    37    1
    26    36    38    1
    27    21    24    1
    28    24    25   ar
    29    25    26   ar
    30    26    27   ar
    31    27    28   ar
    32    28    29   ar
    33    28    30    1
    34    30    31    1
    35    30    32    1
    36    32    33    1
    37    12     2   ar
    38    20    15   ar
    39    29    24   ar
    40    10     4   ar
    41    33    27    1
    42    22    23    1
@<TRIPOS>MOLECULE
*****
 38 42 0 0 0
SMALL
GASTEIGER

@<TRIPOS>ATOM
      1 C         141.0523  140.2232  164.7053 C.3     1  UNL1        0.0760
      2 C         140.1104  142.6150  165.0823 C.ar    1  UNL1        0.1351
      3 C         139.7494  143.9684  164.5459 C.ar    1  UNL1        0.0366
      4 C         139.9693  144.2837  163.0959 C.ar    1  UNL1        0.0030
      5 C         139.6083  145.6371  162.5595 C.ar    1  UNL1        0.0006
      6 C         139.8282  145.9523  161.1096 C.ar    1  UNL1        0.0067
      7 C         140.4091  144.9140  160.1962 C.ar    1  UNL1        0.0346
      8 BR        140.6291  145.2292  158.7462 Br      1  UNL1       -0.0490
      9 C         140.7702  143.5606  160.7326 C.ar    1  UNL1        0.0067
     10 C         140.5502  143.2454  162.1825 C.ar    1  UNL1        0.0004
     11 C         140.9113  141.8919  162.7189 C.ar    1  UNL1       -0.0009
     12 C         140.6913  141.5767  164.1688 C.ar    1  UNL1        0.0181
     13 C         140.0021  143.3855  167.5612 C.3     1  UNL1        0.2525
     14 O         139.8905  142.2998  166.5323 O.3     1  UNL1       -0.4717
     15 C         139.9813  139.3162  165.2347 C.ar    1  UNL1       -0.0157
     16 C         139.0999  139.7729  166.3591 C.ar    1  UNL1       -0.0039
     17 C         138.0289  138.8659  166.8885 C.ar    1  UNL1       -0.0003
     18 C         137.8393  137.5021  166.2935 C.ar    1  UNL1       -0.0000
     19 C         138.7208  137.0453  165.1690 C.ar    1  UNL1       -0.0003
     20 C         139.7918  137.9523  164.6396 C.ar    1  UNL1       -0.0039
     21 C         142.4843  139.7767  164.7124 C.3     1  UNL1        0.1158
     22 O         142.2481  138.9990  163.4518 O.3     1  UNL1       -0.3820
     23 H         141.3412  138.6548  163.4493 H       1  UNL1        0.2107
     24 C         142.7206  140.5545  165.9730 C.ar    1  UNL1        0.0036
     25 C         143.3717  141.9044  165.9106 C.ar    1  UNL1       -0.0023
     26 C         143.6079  142.6822  167.1712 C.ar    1  UNL1       -0.0032
     27 C         143.1931  142.1101  168.4943 C.ar    1  UNL1       -0.0072
     28 C         142.5420  140.7602  168.5568 C.ar    1  UNL1        0.0437
     29 C         142.3057  139.9824  167.2961 C.ar    1  UNL1        0.0122
     30 N         142.2427  140.4560  169.9948 N.pl3   1  UNL1       -0.3057
     31 C         141.5917  139.2088  170.5151 C.3     1  UNL1        0.1122
     32 C         142.7089  141.6179  170.8211 C.3     1  UNL1        0.0955
     33 C         143.2962  142.6401  169.8938 C.3     1  UNL1        0.0490
     34 C         143.9163  139.3303  164.7195 C.3     1  UNL1        0.0491
     35 C         144.7252  139.3850  163.4575 C.3     1  UNL1        0.0750
     36 N         144.9083  140.6895  162.7399 N.3     1  UNL1       -0.2702
     37 C         145.7804  141.7559  163.3334 C.3     1  UNL1        0.0897
     38 C         144.2193  140.9275  161.4289 C.3     1  UNL1        0.0897
@<TRIPOS>BOND
     1    13    14    1
     2    14     2    1
     3     2     3   ar
     4     3     4   ar
     5     4     5   ar
     6     5     6   ar
     7     6     7   ar
     8     7     8    1
     9     7     9   ar
    10     9    10   ar
    11    10    11   ar
    12    11    12   ar
    13     1    12    1
    14     1    15    1
    15    15    16   ar
    16    16    17   ar
    17    17    18   ar
    18    18    19   ar
    19    19    20   ar
    20     1    21    1
    21    21    22    1
    22    21    34    1
    23    34    35    1
    24    35    36    1
    25    36    37    1
    26    36    38    1
    27    21    24    1
    28    24    25   ar
    29    25    26   ar
    30    26    27   ar
    31    27    28   ar
    32    28    29   ar
    33    28    30    1
    34    30    31    1
    35    30    32    1
    36    32    33    1
    37    12     2   ar
    38    20    15   ar
    39    29    24   ar
    40    10     4   ar
    41    33    27    1
    42    22    23    1
@<TRIPOS>MOLECULE
*****
 38 42 0 0 0
SMALL
GASTEIGER

@<TRIPOS>ATOM
      1 C         140.8725  139.4797  163.7251 C.3     1  UNL1        0.0760
      2 C         139.6535  139.4214  161.4315 C.ar    1  UNL1        0.1351
      3 C         139.2509  140.1017  160.1567 C.ar    1  UNL1        0.0366
      4 C         139.6646  141.5207  159.9007 C.ar    1  UNL1        0.0030
      5 C         139.2620  142.2009  158.6260 C.ar    1  UNL1        0.0006
      6 C         139.6757  143.6198  158.3700 C.ar    1  UNL1        0.0067
      7 C         140.4921  144.3584  159.3888 C.ar    1  UNL1        0.0346
      8 BR        140.9058  145.7774  159.1329 Br      1  UNL1       -0.0490
      9 C         140.8947  143.6782  160.6636 C.ar    1  UNL1        0.0067
     10 C         140.4810  142.2593  160.9196 C.ar    1  UNL1        0.0004
     11 C         140.8836  141.5789  162.1944 C.ar    1  UNL1       -0.0009
     12 C         140.4698  140.1601  162.4503 C.ar    1  UNL1        0.0181
     13 C         137.7905  137.6669  161.8798 C.3     1  UNL1        0.2525
     14 O         139.2398  138.0025  161.6875 O.3     1  UNL1       -0.4717
     15 C         139.8285  139.0897  164.7292 C.ar    1  UNL1       -0.0157
     16 C         139.0245  140.1479  165.4247 C.ar    1  UNL1       -0.0039
     17 C         137.9806  139.7579  166.4288 C.ar    1  UNL1       -0.0003
     18 C         137.7406  138.3097  166.7373 C.ar    1  UNL1       -0.0000
     19 C         138.5447  137.2515  166.0417 C.ar    1  UNL1       -0.0003
     20 C         139.5886  137.6415  165.0377 C.ar    1  UNL1       -0.0039
     21 C         142.3189  139.1894  163.9959 C.3     1  UNL1        0.1158
     22 O         142.3591  138.2786  162.8048 O.3     1  UNL1       -0.3820
     23 H         141.4990  137.8419  162.7025 H       1  UNL1        0.2107
     24 C         142.2788  140.1002  165.1870 C.ar    1  UNL1        0.0036
     25 C         142.1575  141.5828  164.9937 C.ar    1  UNL1       -0.0023
     26 C         142.1174  142.4936  166.1848 C.ar    1  UNL1       -0.0032
     27 C         142.1986  141.9219  167.5692 C.ar    1  UNL1       -0.0072
     28 C         142.3198  140.4393  167.7625 C.ar    1  UNL1        0.0437
     29 C         142.3599  139.5285  166.5714 C.ar    1  UNL1        0.0122
     30 N         142.3798  140.1674  169.2364 N.pl3   1  UNL1       -0.3057
     31 C         142.5025  138.8179  169.8797 C.3     1  UNL1        0.1122
     32 C         142.2956  141.4819  169.9541 C.3     1  UNL1        0.0955
     33 C         142.1836  142.5662  168.9237 C.3     1  UNL1        0.0490
     34 C         143.7654  138.8991  164.2666 C.3     1  UNL1        0.0491
     35 C         144.8087  139.2833  163.2597 C.3     1  UNL1        0.0750
     36 N         144.9877  140.7227  162.8772 N.3     1  UNL1       -0.2702
     37 C         144.3992  141.2372  161.5969 C.3     1  UNL1        0.0897
     38 C         145.7550  141.6475  163.7749 C.3     1  UNL1        0.0897
@<TRIPOS>BOND
     1    13    14    1
     2    14     2    1
     3     2     3   ar
     4     3     4   ar
     5     4     5   ar
     6     5     6   ar
     7     6     7   ar
     8     7     8    1
     9     7     9   ar
    10     9    10   ar
    11    10    11   ar
    12    11    12   ar
    13     1    12    1
    14     1    15    1
    15    15    16   ar
    16    16    17   ar
    17    17    18   ar
    18    18    19   ar
    19    19    20   ar
    20     1    21    1
    21    21    22    1
    22    21    34    1
    23    34    35    1
    24    35    36    1
    25    36    37    1
    26    36    38    1
    27    21    24    1
    28    24    25   ar
    29    25    26   ar
    30    26    27   ar
    31    27    28   ar
    32    28    29   ar
    33    28    30    1
    34    30    31    1
    35    30    32    1
    36    32    33    1
    37    12     2   ar
    38    20    15   ar
    39    29    24   ar
    40    10     4   ar
    41    33    27    1
    42    22    23    1
@<TRIPOS>MOLECULE
*****
 38 42 0 0 0
SMALL
GASTEIGER

@<TRIPOS>ATOM
      1 C         142.4102  143.0455  160.8494 C.3     1  UNL1        0.0760
      2 C         142.9231  143.0728  158.3026 C.ar    1  UNL1        0.1351
      3 C         143.1415  142.3377  157.0135 C.ar    1  UNL1        0.0366
      4 C         143.0655  140.8399  156.9820 C.ar    1  UNL1        0.0030
      5 C         143.2839  140.1047  155.6929 C.ar    1  UNL1        0.0006
      6 C         143.2079  138.6070  155.6615 C.ar    1  UNL1        0.0067
      7 C         142.9134  137.8445  156.9192 C.ar    1  UNL1        0.0346
      8 BR        142.8374  136.3467  156.8877 Br      1  UNL1       -0.0490
      9 C         142.6950  138.5796  158.2083 C.ar    1  UNL1        0.0067
     10 C         142.7710  140.0773  158.2397 C.ar    1  UNL1        0.0004
     11 C         142.5526  140.8125  159.5288 C.ar    1  UNL1       -0.0009
     12 C         142.6286  142.3102  159.5602 C.ar    1  UNL1        0.0181
     13 C         142.0266  145.3878  157.5363 C.3     1  UNL1        0.2525
     14 O         142.9991  144.5706  158.3340 O.3     1  UNL1       -0.4717
     15 C         143.3123  142.7904  162.0204 C.ar    1  UNL1       -0.0157
     16 C         142.8616  143.1469  163.4059 C.ar    1  UNL1       -0.0039
     17 C         143.7637  142.8919  164.5769 C.ar    1  UNL1       -0.0003
     18 C         145.1164  142.2804  164.3623 C.ar    1  UNL1       -0.0000
     19 C         145.5672  141.9239  162.9767 C.ar    1  UNL1       -0.0003
     20 C         144.6651  142.1789  161.8057 C.ar    1  UNL1       -0.0039
     21 C         141.2897  144.0357  160.9675 C.3     1  UNL1        0.1158
     22 O         142.2865  145.1433  161.1383 O.3     1  UNL1       -0.3820
     23 H         143.0631  144.8090  161.6137 H       1  UNL1        0.2107
     24 C         140.2928  142.9280  160.7967 C.ar    1  UNL1        0.0036
     25 C         139.4284  142.8791  159.5717 C.ar    1  UNL1       -0.0023
     26 C         138.4315  141.7714  159.4010 C.ar    1  UNL1       -0.0032
     27 C         138.2990  140.7125  160.4552 C.ar    1  UNL1       -0.0072
     28 C         139.1633  140.7614  161.6801 C.ar    1  UNL1        0.0437
     29 C         140.1602  141.8691  161.8509 C.ar    1  UNL1        0.0122
     30 N         138.8102  139.5869  162.5437 N.pl3   1  UNL1       -0.3057
     31 C         139.4308  139.2469  163.8663 C.3     1  UNL1        0.1122
     32 C         137.7277  138.8121  161.8525 C.3     1  UNL1        0.0955
     33 C         137.4117  139.5078  160.5617 C.3     1  UNL1        0.0490
     34 C         140.1692  145.0258  161.0856 C.3     1  UNL1        0.0491
     35 C         139.8476  145.6393  162.4161 C.3     1  UNL1        0.0750
     36 N         139.0731  144.8571  163.4351 N.3     1  UNL1       -0.2702
     37 C         137.7110  144.3274  163.0974 C.3     1  UNL1        0.0897
     38 C         139.6608  144.6045  164.7919 C.3     1  UNL1        0.0897
@<TRIPOS>BOND
     1    13    14    1
     2    14     2    1
     3     2     3   ar
     4     3     4   ar
     5     4     5   ar
     6     5     6   ar
     7     6     7   ar
     8     7     8    1
     9     7     9   ar
    10     9    10   ar
    11    10    11   ar
    12    11    12   ar
    13     1    12    1
    14     1    15    1
    15    15    16   ar
    16    16    17   ar
    17    17    18   ar
    18    18    19   ar
    19    19    20   ar
    20     1    21    1
    21    21    22    1
    22    21    34    1
    23    34    35    1
    24    35    36    1
    25    36    37    1
    26    36    38    1
    27    21    24    1
    28    24    25   ar
    29    25    26   ar
    30    26    27   ar
    31    27    28   ar
    32    28    29   ar
    33    28    30    1
    34    30    31    1
    35    30    32    1
    36    32    33    1
    37    12     2   ar
    38    20    15   ar
    39    29    24   ar
    40    10     4   ar
    41    33    27    1
    42    22    23    1
@<TRIPOS>MOLECULE
*****
 38 42 0 0 0
SMALL
GASTEIGER

@<TRIPOS>ATOM
      1 C         140.4553  139.7995  164.4703 C.3     1  UNL1        0.0760
      2 C         141.5572  138.8701  162.3088 C.ar    1  UNL1        0.1351
      3 C         141.5515  138.6970  160.8189 C.ar    1  UNL1        0.0366
      4 C         140.4380  139.2803  160.0003 C.ar    1  UNL1        0.0030
      5 C         140.4322  139.1072  158.5104 C.ar    1  UNL1        0.0006
      6 C         139.3187  139.6904  157.6919 C.ar    1  UNL1        0.0067
      7 C         138.2110  140.4468  158.3634 C.ar    1  UNL1        0.0346
      8 BR        137.0975  141.0301  157.5448 Br      1  UNL1       -0.0490
      9 C         138.2168  140.6199  159.8533 C.ar    1  UNL1        0.0067
     10 C         139.3302  140.0366  160.6718 C.ar    1  UNL1        0.0004
     11 C         139.3360  140.2097  162.1618 C.ar    1  UNL1       -0.0009
     12 C         140.4495  139.6264  162.9803 C.ar    1  UNL1        0.0181
     13 C         144.0839  138.7348  162.8986 C.3     1  UNL1        0.2525
     14 O         142.6707  138.2868  163.1273 O.3     1  UNL1       -0.4717
     15 C         139.4438  139.0804  165.3128 C.ar    1  UNL1       -0.0157
     16 C         138.8532  139.7553  166.5151 C.ar    1  UNL1       -0.0039
     17 C         137.8417  139.0362  167.3576 C.ar    1  UNL1       -0.0003
     18 C         137.4209  137.6421  166.9978 C.ar    1  UNL1       -0.0000
     19 C         138.0116  136.9671  165.7954 C.ar    1  UNL1       -0.0003
     20 C         139.0230  137.6863  164.9529 C.ar    1  UNL1       -0.0039
     21 C         141.4725  140.6917  165.1177 C.3     1  UNL1        0.1158
     22 O         142.1142  139.4961  165.7571 O.3     1  UNL1       -0.3820
     23 H         141.4339  138.8369  165.9658 H       1  UNL1        0.2107
     24 C         140.8308  141.8873  164.4784 C.ar    1  UNL1        0.0036
     25 C         139.6310  142.5244  165.1145 C.ar    1  UNL1       -0.0023
     26 C         138.9893  143.7200  164.4752 C.ar    1  UNL1       -0.0032
     27 C         139.5474  144.2785  163.1998 C.ar    1  UNL1       -0.0072
     28 C         140.7471  143.6414  162.5637 C.ar    1  UNL1        0.0437
     29 C         141.3889  142.4458  163.2030 C.ar    1  UNL1        0.0122
     30 N         141.0720  144.4077  161.3158 N.pl3   1  UNL1       -0.3057
     31 C         142.1982  144.1147  160.3693 C.3     1  UNL1        0.1122
     32 C         140.0730  145.5184  161.1806 C.3     1  UNL1        0.0955
     33 C         139.1307  145.4385  162.3450 C.3     1  UNL1        0.0490
     34 C         142.4897  141.5839  165.7652 C.3     1  UNL1        0.0491
     35 C         143.9468  141.4087  165.4549 C.3     1  UNL1        0.0750
     36 N         144.6675  142.4363  164.6334 N.3     1  UNL1       -0.2702
     37 C         145.6441  142.0041  163.5801 C.3     1  UNL1        0.0897
     38 C         144.4116  143.8960  164.8653 C.3     1  UNL1        0.0897
@<TRIPOS>BOND
     1    13    14    1
     2    14     2    1
     3     2     3   ar
     4     3     4   ar
     5     4     5   ar
     6     5     6   ar
     7     6     7   ar
     8     7     8    1
     9     7     9   ar
    10     9    10   ar
    11    10    11   ar
    12    11    12   ar
    13     1    12    1
    14     1    15    1
    15    15    16   ar
    16    16    17   ar
    17    17    18   ar
    18    18    19   ar
    19    19    20   ar
    20     1    21    1
    21    21    22    1
    22    21    34    1
    23    34    35    1
    24    35    36    1
    25    36    37    1
    26    36    38    1
    27    21    24    1
    28    24    25   ar
    29    25    26   ar
    30    26    27   ar
    31    27    28   ar
    32    28    29   ar
    33    28    30    1
    34    30    31    1
    35    30    32    1
    36    32    33    1
    37    12     2   ar
    38    20    15   ar
    39    29    24   ar
    40    10     4   ar
    41    33    27    1
    42    22    23    1
