@<TRIPOS>MOLECULE
*****
 34 35 0 0 0
SMALL
GASTEIGER

@<TRIPOS>ATOM
      1 N         140.0694  138.3264  162.1282 N.3     1  UNL1       -0.2712
      2 C         140.3055  138.0055  163.5743 C.3     1  UNL1        0.0723
      3 C         141.6565  138.2379  164.1833 C.3     1  UNL1        0.0214
      4 C         142.7714  138.7911  163.3461 C.3     1  UNL1        0.0478
      5 C         142.5353  139.1120  161.9000 C.3     1  UNL1        0.0214
      6 C         141.1844  138.8796  161.2911 C.3     1  UNL1        0.0723
      7 C         144.1325  139.2935  162.9653 C.3     1  UNL1        0.1387
      8 O         145.2348  139.3174  163.9823 O.3     1  UNL1       -0.3819
      9 H         145.0164  139.9539  164.6809 H       1  UNL1        0.2104
     10 C         138.7185  138.0940  161.5192 C.3     1  UNL1        0.0937
     11 C         137.7741  139.2436  161.3282 C.3     1  UNL1        0.1082
     12 N         137.6652  142.1027  164.0785 N.am    1  UNL1       -0.2921
     13 C         138.1031  141.2877  162.8978 C.2     1  UNL1        0.3007
     14 O         139.3079  141.7018  162.1061 O.2     1  UNL1       -0.2528
     15 N         137.3361  140.0586  162.5089 N.am    1  UNL1       -0.2875
     16 H         136.8744  141.8309  164.5982 H       1  UNL1        0.1508
     17 H         136.5454  139.7868  163.0286 H       1  UNL1        0.1510
     18 C         137.5943  144.1508  163.5309 C.3     1  UNL1        0.0197
     19 C         138.4321  143.3317  164.4674 C.3     1  UNL1        0.0583
     20 C         139.2699  142.5126  165.4039 C.3     1  UNL1        0.0197
     21 C         139.1990  144.5608  164.8564 C.3     1  UNL1        0.0197
     22 C         143.4802  138.6447  164.6600 C.3     1  UNL1        0.0921
     23 N         142.8131  139.0940  165.9262 N.am    1  UNL1       -0.3008
     24 C         142.9211  140.5246  166.3640 C.2     1  UNL1        0.2459
     25 O         143.6962  141.5059  165.5356 O.2     1  UNL1       -0.2701
     26 H         142.3044  138.4499  166.4698 H       1  UNL1        0.1497
     27 C         142.2540  140.9739  167.6301 C.ar    1  UNL1        0.0550
     28 C         140.9070  140.4290  168.0023 C.ar    1  UNL1        0.0160
     29 C         140.2399  140.8783  169.2684 C.ar    1  UNL1        0.0587
     30 CL        138.8928  140.3334  169.6406 Cl      1  UNL1       -0.0822
     31 C         140.9199  141.8724  170.1625 C.ar    1  UNL1        0.0228
     32 C         142.2670  142.4173  169.7903 C.ar    1  UNL1        0.0587
     33 CL        142.9469  143.4115  170.6843 Cl      1  UNL1       -0.0822
     34 C         142.9341  141.9681  168.5242 C.ar    1  UNL1        0.0160
@<TRIPOS>BOND
     1    18    19    1
     2    19    20    1
     3    19    21    1
     4    19    12    1
     5    12    13   am
     6    13    14    2
     7    13    15   am
     8    15    11    1
     9    11    10    1
    10    10     1    1
    11     1     2    1
    12     2     3    1
    13     3     4    1
    14     4     7    1
    15     7     8    1
    16     4    22    1
    17    22    23    1
    18    23    24   am
    19    24    25    2
    20    24    27    1
    21    27    28   ar
    22    28    29   ar
    23    29    30    1
    24    29    31   ar
    25    31    32   ar
    26    32    33    1
    27    32    34   ar
    28     4     5    1
    29     5     6    1
    30     6     1    1
    31    34    27   ar
    32    12    16    1
    33    15    17    1
    34     8     9    1
    35    23    26    1
@<TRIPOS>MOLECULE
*****
 34 35 0 0 0
SMALL
GASTEIGER

@<TRIPOS>ATOM
      1 N         142.4437  144.2483  160.9080 N.3     1  UNL1       -0.2712
      2 C         142.5000  144.6286  162.3579 C.3     1  UNL1        0.0723
      3 C         143.4594  143.9346  163.2787 C.3     1  UNL1        0.0214
      4 C         144.3626  142.8602  162.7496 C.3     1  UNL1        0.0478
      5 C         144.3064  142.4799  161.2997 C.3     1  UNL1        0.0214
      6 C         143.3469  143.1739  160.3790 C.3     1  UNL1        0.0723
      7 C         145.4120  141.7887  162.7205 C.3     1  UNL1        0.1387
      8 O         146.2746  141.5509  163.9244 O.3     1  UNL1       -0.3819
      9 H         146.8380  142.3258  164.0766 H       1  UNL1        0.2104
     10 C         141.4843  144.9423  159.9873 C.3     1  UNL1        0.0937
     11 C         140.1309  144.3494  159.7289 C.3     1  UNL1        0.1082
     12 N         138.0994  143.0653  162.8872 N.am    1  UNL1       -0.2921
     13 C         139.1139  143.1277  161.7840 C.2     1  UNL1        0.3007
     14 O         140.1259  142.0310  161.6328 O.2     1  UNL1       -0.2528
     15 N         139.1164  144.2870  160.8321 N.am    1  UNL1       -0.2875
     16 H         137.4352  143.7852  162.9864 H       1  UNL1        0.1508
     17 H         138.4522  145.0069  160.9313 H       1  UNL1        0.1510
     18 C         138.9031  142.7079  164.8175 C.3     1  UNL1        0.0197
     19 C         138.0969  141.9061  163.8391 C.3     1  UNL1        0.0583
     20 C         137.2907  141.1044  162.8607 C.3     1  UNL1        0.0197
     21 C         138.0944  140.7469  164.7910 C.3     1  UNL1        0.0197
     22 C         144.7833  142.8685  164.1894 C.3     1  UNL1        0.0921
     23 N         143.7468  142.8618  165.2736 N.am    1  UNL1       -0.3008
     24 C         143.2410  141.5596  165.8198 C.2     1  UNL1        0.2459
     25 O         143.7717  140.2640  165.2816 O.2     1  UNL1       -0.2701
     26 H         143.3985  143.7122  165.6268 H       1  UNL1        0.1497
     27 C         142.2045  141.5530  166.9040 C.ar    1  UNL1        0.0550
     28 C         141.1082  140.5294  166.8873 C.ar    1  UNL1        0.0160
     29 C         140.0717  140.5228  167.9715 C.ar    1  UNL1        0.0587
     30 CL        138.9753  139.4991  167.9547 Cl      1  UNL1       -0.0822
     31 C         140.1315  141.5397  169.0725 C.ar    1  UNL1        0.0228
     32 C         141.2279  142.5633  169.0893 C.ar    1  UNL1        0.0587
     33 CL        141.2877  143.5802  170.1903 Cl      1  UNL1       -0.0822
     34 C         142.2644  142.5699  168.0050 C.ar    1  UNL1        0.0160
@<TRIPOS>BOND
     1    18    19    1
     2    19    20    1
     3    19    21    1
     4    19    12    1
     5    12    13   am
     6    13    14    2
     7    13    15   am
     8    15    11    1
     9    11    10    1
    10    10     1    1
    11     1     2    1
    12     2     3    1
    13     3     4    1
    14     4     7    1
    15     7     8    1
    16     4    22    1
    17    22    23    1
    18    23    24   am
    19    24    25    2
    20    24    27    1
    21    27    28   ar
    22    28    29   ar
    23    29    30    1
    24    29    31   ar
    25    31    32   ar
    26    32    33    1
    27    32    34   ar
    28     4     5    1
    29     5     6    1
    30     6     1    1
    31    34    27   ar
    32    12    16    1
    33    15    17    1
    34     8     9    1
    35    23    26    1
@<TRIPOS>MOLECULE
*****
 34 35 0 0 0
SMALL
GASTEIGER

@<TRIPOS>ATOM
      1 N         139.4489  142.5177  160.1084 N.3     1  UNL1       -0.2712
      2 C         138.7482  142.5317  161.4345 C.3     1  UNL1        0.0723
      3 C         138.4549  141.2418  162.1416 C.3     1  UNL1        0.0214
      4 C         138.8624  139.9377  161.5225 C.3     1  UNL1        0.0478
      5 C         139.5631  139.9236  160.1963 C.3     1  UNL1        0.0214
      6 C         139.8564  141.2136  159.4893 C.3     1  UNL1        0.0723
      7 C         139.0490  138.4603  161.3422 C.3     1  UNL1        0.1387
      8 O         138.3795  137.4998  162.2799 O.3     1  UNL1       -0.3819
      9 H         138.7524  137.6032  163.1693 H       1  UNL1        0.2104
     10 C         139.7422  143.8076  159.4013 C.3     1  UNL1        0.0937
     11 C         140.2417  144.9909  160.1761 C.3     1  UNL1        0.1082
     12 N         143.6109  144.6053  162.2377 N.am    1  UNL1       -0.2921
     13 C         142.1622  144.5137  161.8596 C.2     1  UNL1        0.3007
     14 O         141.1854  143.8533  162.7867 O.2     1  UNL1       -0.2528
     15 N         141.6903  145.0825  160.5542 N.am    1  UNL1       -0.2875
     16 H         144.2520  145.0388  161.6292 H       1  UNL1        0.1508
     17 H         142.3315  145.5160  159.9457 H       1  UNL1        0.1510
     18 C         144.5017  142.7778  162.8430 C.3     1  UNL1        0.0197
     19 C         144.0827  144.0366  163.5430 C.3     1  UNL1        0.0583
     20 C         143.6638  145.2953  164.2429 C.3     1  UNL1        0.0197
     21 C         144.5546  143.4678  164.8483 C.3     1  UNL1        0.0197
     22 C         138.2265  139.4387  162.7861 C.3     1  UNL1        0.0921
     23 N         138.6120  140.0366  164.1066 N.am    1  UNL1       -0.3008
     24 C         139.6287  139.3523  164.9715 C.2     1  UNL1        0.2459
     25 O         140.2597  138.0701  164.5159 O.2     1  UNL1       -0.2701
     26 H         138.1978  140.8782  164.4056 H       1  UNL1        0.1497
     27 C         140.0143  139.9502  166.2920 C.ar    1  UNL1        0.0550
     28 C         139.1248  139.7683  167.4861 C.ar    1  UNL1        0.0160
     29 C         139.5104  140.3662  168.8066 C.ar    1  UNL1        0.0587
     30 CL        138.6208  140.1842  170.0007 Cl      1  UNL1       -0.0822
     31 C         140.7854  141.1460  168.9332 C.ar    1  UNL1        0.0228
     32 C         141.6750  141.3279  167.7391 C.ar    1  UNL1        0.0587
     33 CL        142.9500  142.1077  167.8657 Cl      1  UNL1       -0.0822
     34 C         141.2894  140.7300  166.4186 C.ar    1  UNL1        0.0160
@<TRIPOS>BOND
     1    18    19    1
     2    19    20    1
     3    19    21    1
     4    19    12    1
     5    12    13   am
     6    13    14    2
     7    13    15   am
     8    15    11    1
     9    11    10    1
    10    10     1    1
    11     1     2    1
    12     2     3    1
    13     3     4    1
    14     4     7    1
    15     7     8    1
    16     4    22    1
    17    22    23    1
    18    23    24   am
    19    24    25    2
    20    24    27    1
    21    27    28   ar
    22    28    29   ar
    23    29    30    1
    24    29    31   ar
    25    31    32   ar
    26    32    33    1
    27    32    34   ar
    28     4     5    1
    29     5     6    1
    30     6     1    1
    31    34    27   ar
    32    12    16    1
    33    15    17    1
    34     8     9    1
    35    23    26    1
@<TRIPOS>MOLECULE
*****
 34 35 0 0 0
SMALL
GASTEIGER

@<TRIPOS>ATOM
      1 N         138.7329  142.3997  160.1256 N.3     1  UNL1       -0.2712
      2 C         138.1736  142.4014  161.5174 C.3     1  UNL1        0.0723
      3 C         138.5574  143.4871  162.4786 C.3     1  UNL1        0.0214
      4 C         139.5005  144.5711  162.0481 C.3     1  UNL1        0.0478
      5 C         140.0598  144.5694  160.6563 C.3     1  UNL1        0.0214
      6 C         139.6760  143.4837  159.6951 C.3     1  UNL1        0.0723
      7 C         140.3521  145.8045  162.1082 C.3     1  UNL1        0.1387
      8 O         141.2684  146.0271  163.2747 O.3     1  UNL1       -0.3819
      9 H         140.7421  146.1539  164.0796 H       1  UNL1        0.2104
     10 C         138.3491  141.3141  159.1643 C.3     1  UNL1        0.0937
     11 C         138.6583  139.8823  159.4876 C.3     1  UNL1        0.1082
     12 N         141.4604  138.8565  162.1041 N.am    1  UNL1       -0.2921
     13 C         140.1248  139.2239  161.5287 C.2     1  UNL1        0.3007
     14 O         138.9200  139.3003  162.4189 O.2     1  UNL1       -0.2528
     15 N         139.9940  139.5150  160.0630 N.am    1  UNL1       -0.2875
     16 H         142.2512  138.8064  161.5198 H       1  UNL1        0.1508
     17 H         140.7848  139.4649  159.4787 H       1  UNL1        0.1510
     18 C         142.0397  139.9766  163.8099 C.3     1  UNL1        0.0197
     19 C         141.5913  138.5655  163.5697 C.3     1  UNL1        0.0583
     20 C         141.1428  137.1544  163.3296 C.3     1  UNL1        0.0197
     21 C         141.7221  138.2744  165.0355 C.3     1  UNL1        0.0197
     22 C         139.2369  145.0011  163.4608 C.3     1  UNL1        0.0921
     23 N         139.0337  143.9717  164.5326 N.am    1  UNL1       -0.3008
     24 C         140.2179  143.2946  165.1565 C.2     1  UNL1        0.2459
     25 O         141.6053  143.6471  164.7084 O.2     1  UNL1       -0.2701
     26 H         138.1231  143.7404  164.8266 H       1  UNL1        0.1497
     27 C         140.0147  142.2652  166.2283 C.ar    1  UNL1        0.0550
     28 C         140.5567  142.5008  167.6070 C.ar    1  UNL1        0.0160
     29 C         140.3535  141.4714  168.6788 C.ar    1  UNL1        0.0587
     30 CL        140.8955  141.7071  170.0575 Cl      1  UNL1       -0.0822
     31 C         139.6084  140.2062  168.3721 C.ar    1  UNL1        0.0228
     32 C         139.0664  139.9705  166.9933 C.ar    1  UNL1        0.0587
     33 CL        138.3213  138.7053  166.6866 Cl      1  UNL1       -0.0822
     34 C         139.2696  141.0000  165.9215 C.ar    1  UNL1        0.0160
@<TRIPOS>BOND
     1    18    19    1
     2    19    20    1
     3    19    21    1
     4    19    12    1
     5    12    13   am
     6    13    14    2
     7    13    15   am
     8    15    11    1
     9    11    10    1
    10    10     1    1
    11     1     2    1
    12     2     3    1
    13     3     4    1
    14     4     7    1
    15     7     8    1
    16     4    22    1
    17    22    23    1
    18    23    24   am
    19    24    25    2
    20    24    27    1
    21    27    28   ar
    22    28    29   ar
    23    29    30    1
    24    29    31   ar
    25    31    32   ar
    26    32    33    1
    27    32    34   ar
    28     4     5    1
    29     5     6    1
    30     6     1    1
    31    34    27   ar
    32    12    16    1
    33    15    17    1
    34     8     9    1
    35    23    26    1
@<TRIPOS>MOLECULE
*****
 34 35 0 0 0
SMALL
GASTEIGER

@<TRIPOS>ATOM
      1 N         139.3836  143.8093  160.8769 N.3     1  UNL1       -0.2712
      2 C         139.2463  143.7415  162.3691 C.3     1  UNL1        0.0723
      3 C         138.5881  142.5550  163.0086 C.3     1  UNL1        0.0214
      4 C         138.0672  141.4362  162.1560 C.3     1  UNL1        0.0478
      5 C         138.2045  141.5040  160.6638 C.3     1  UNL1        0.0214
      6 C         138.8627  142.6905  160.0243 C.3     1  UNL1        0.0723
      7 C         137.4206  140.1372  161.7757 C.3     1  UNL1        0.1387
      8 O         138.2692  138.9591  161.3990 O.3     1  UNL1       -0.3819
      9 H         138.7428  139.1521  160.5748 H       1  UNL1        0.2104
     10 C         140.0417  144.9958  160.2374 C.3     1  UNL1        0.0937
     11 C         141.5332  145.0330  160.0823 C.3     1  UNL1        0.1082
     12 N         143.7161  143.4583  162.9987 N.am    1  UNL1       -0.2921
     13 C         142.8335  143.5702  161.7911 C.2     1  UNL1        0.3007
     14 O         142.3685  142.3315  161.0845 O.2     1  UNL1       -0.2528
     15 N         142.4159  144.9210  161.2900 N.am    1  UNL1       -0.2875
     16 H         144.0214  144.2713  163.4624 H       1  UNL1        0.1508
     17 H         142.7211  145.7341  161.7537 H       1  UNL1        0.1510
     18 C         142.9814  142.1075  164.4599 C.3     1  UNL1        0.0197
     19 C         144.1338  142.1076  163.4998 C.3     1  UNL1        0.0583
     20 C         145.2862  142.1077  162.5397 C.3     1  UNL1        0.0197
     21 C         144.5515  140.7568  164.0009 C.3     1  UNL1        0.0197
     22 C         137.7053  140.9174  163.5161 C.3     1  UNL1        0.0921
     23 N         138.7447  140.8544  164.5957 N.am    1  UNL1       -0.3008
     24 C         139.4110  139.5503  164.9204 C.2     1  UNL1        0.2459
     25 O         139.0378  138.3091  164.1652 O.2     1  UNL1       -0.2701
     26 H         138.9896  141.6690  165.0913 H       1  UNL1        0.1497
     27 C         140.4503  139.4874  166.0000 C.ar    1  UNL1        0.0550
     28 C         141.7805  138.8512  165.7244 C.ar    1  UNL1        0.0160
     29 C         142.8198  138.7882  166.8040 C.ar    1  UNL1        0.0587
     30 CL        144.1501  138.1520  166.5284 Cl      1  UNL1       -0.0822
     31 C         142.5291  139.3614  168.1593 C.ar    1  UNL1        0.0228
     32 C         141.1989  139.9976  168.4350 C.ar    1  UNL1        0.0587
     33 CL        140.9082  140.5708  169.7903 Cl      1  UNL1       -0.0822
     34 C         140.1596  140.0606  167.3554 C.ar    1  UNL1        0.0160
@<TRIPOS>BOND
     1    18    19    1
     2    19    20    1
     3    19    21    1
     4    19    12    1
     5    12    13   am
     6    13    14    2
     7    13    15   am
     8    15    11    1
     9    11    10    1
    10    10     1    1
    11     1     2    1
    12     2     3    1
    13     3     4    1
    14     4     7    1
    15     7     8    1
    16     4    22    1
    17    22    23    1
    18    23    24   am
    19    24    25    2
    20    24    27    1
    21    27    28   ar
    22    28    29   ar
    23    29    30    1
    24    29    31   ar
    25    31    32   ar
    26    32    33    1
    27    32    34   ar
    28     4     5    1
    29     5     6    1
    30     6     1    1
    31    34    27   ar
    32    12    16    1
    33    15    17    1
    34     8     9    1
    35    23    26    1
@<TRIPOS>MOLECULE
*****
 34 35 0 0 0
SMALL
GASTEIGER

@<TRIPOS>ATOM
      1 N         137.8303  142.5930  163.9953 N.3     1  UNL1       -0.2712
      2 C         137.8089  142.2978  162.5248 C.3     1  UNL1        0.0723
      3 C         138.0760  140.9052  162.0354 C.3     1  UNL1        0.0214
      4 C         138.3644  139.8079  163.0165 C.3     1  UNL1        0.0478
      5 C         138.3857  140.1030  164.4870 C.3     1  UNL1        0.0214
      6 C         138.1187  141.4956  164.9764 C.3     1  UNL1        0.0723
      7 C         138.6839  138.4434  163.5514 C.3     1  UNL1        0.1387
      8 O         138.4852  137.2336  162.6872 O.3     1  UNL1       -0.3819
      9 H         137.5395  137.1188  162.5041 H       1  UNL1        0.2104
     10 C         137.5633  143.9855  164.4847 C.3     1  UNL1        0.0937
     11 C         138.6768  144.8000  165.0733 C.3     1  UNL1        0.1082
     12 N         142.0007  145.2191  162.9458 N.am    1  UNL1       -0.2921
     13 C         140.9564  144.6193  163.8400 C.2     1  UNL1        0.3007
     14 O         141.1474  143.2390  164.3953 O.2     1  UNL1       -0.2528
     15 N         139.7211  145.3998  164.1791 N.am    1  UNL1       -0.2875
     16 H         141.8753  146.1250  162.5813 H       1  UNL1        0.1508
     17 H         139.5958  146.3058  163.8146 H       1  UNL1        0.1510
     18 C         143.9176  144.9886  163.8244 C.3     1  UNL1        0.0197
     19 C         143.2359  144.4386  162.6067 C.3     1  UNL1        0.0583
     20 C         142.5543  143.8887  161.3890 C.3     1  UNL1        0.0197
     21 C         144.4712  143.6581  162.2677 C.3     1  UNL1        0.0197
     22 C         138.4540  139.0388  161.7317 C.3     1  UNL1        0.0921
     23 N         139.4317  139.4570  160.6739 N.am    1  UNL1       -0.3008
     24 C         140.7360  138.7305  160.5287 C.2     1  UNL1        0.2459
     25 O         141.0624  137.5858  161.4414 O.2     1  UNL1       -0.2701
     26 H         139.2174  140.2083  160.0749 H       1  UNL1        0.1497
     27 C         141.7138  139.1487  159.4709 C.ar    1  UNL1        0.0550
     28 C         142.4374  140.4569  159.5934 C.ar    1  UNL1        0.0160
     29 C         143.4151  140.8751  158.5356 C.ar    1  UNL1        0.0587
     30 CL        144.1388  142.1834  158.6582 Cl      1  UNL1       -0.0822
     31 C         143.6694  139.9852  157.3552 C.ar    1  UNL1        0.0228
     32 C         142.9458  138.6769  157.2327 C.ar    1  UNL1        0.0587
     33 CL        143.2000  137.7870  156.0523 Cl      1  UNL1       -0.0822
     34 C         141.9680  138.2587  158.2905 C.ar    1  UNL1        0.0160
@<TRIPOS>BOND
     1    18    19    1
     2    19    20    1
     3    19    21    1
     4    19    12    1
     5    12    13   am
     6    13    14    2
     7    13    15   am
     8    15    11    1
     9    11    10    1
    10    10     1    1
    11     1     2    1
    12     2     3    1
    13     3     4    1
    14     4     7    1
    15     7     8    1
    16     4    22    1
    17    22    23    1
    18    23    24   am
    19    24    25    2
    20    24    27    1
    21    27    28   ar
    22    28    29   ar
    23    29    30    1
    24    29    31   ar
    25    31    32   ar
    26    32    33    1
    27    32    34   ar
    28     4     5    1
    29     5     6    1
    30     6     1    1
    31    34    27   ar
    32    12    16    1
    33    15    17    1
    34     8     9    1
    35    23    26    1
@<TRIPOS>MOLECULE
*****
 34 35 0 0 0
SMALL
GASTEIGER

@<TRIPOS>ATOM
      1 N         143.7925  141.7793  160.0777 N.3     1  UNL1       -0.2712
      2 C         144.3610  141.7471  161.4654 C.3     1  UNL1        0.0723
      3 C         144.3721  140.4636  162.2417 C.3     1  UNL1        0.0214
      4 C         143.8147  139.2124  161.6304 C.3     1  UNL1        0.0478
      5 C         143.2462  139.2447  160.2427 C.3     1  UNL1        0.0214
      6 C         143.2351  140.5281  159.4663 C.3     1  UNL1        0.0723
      7 C         143.4054  137.7769  161.4832 C.3     1  UNL1        0.1387
      8 O         141.9776  137.3770  161.7103 O.3     1  UNL1       -0.3819
      9 H         141.7470  137.5169  162.6420 H       1  UNL1        0.2104
     10 C         143.7813  143.0627  159.3013 C.3     1  UNL1        0.0937
     11 C         142.4940  143.8054  159.0985 C.3     1  UNL1        0.1082
     12 N         140.7321  145.3704  162.2917 N.am    1  UNL1       -0.2921
     13 C         141.1884  144.3683  161.2730 C.2     1  UNL1        0.3007
     14 O         140.7956  142.9273  161.4102 O.2     1  UNL1       -0.2528
     15 N         142.0377  144.8074  160.1171 N.am    1  UNL1       -0.2875
     16 H         140.9899  146.3163  162.2016 H       1  UNL1        0.1508
     17 H         142.2955  145.7533  160.0270 H       1  UNL1        0.1510
     18 C         141.1176  144.7040  164.2683 C.3     1  UNL1        0.0197
     19 C         139.8829  144.9314  163.4475 C.3     1  UNL1        0.0583
     20 C         138.6482  145.1588  162.6268 C.3     1  UNL1        0.0197
     21 C         139.0336  144.4923  164.6034 C.3     1  UNL1        0.0197
     22 C         144.2411  138.6817  162.9670 C.3     1  UNL1        0.0921
     23 N         143.8659  139.4159  164.2200 N.am    1  UNL1       -0.3008
     24 C         142.7462  138.9088  165.0797 C.2     1  UNL1        0.2459
     25 O         142.0018  137.6674  164.6864 O.2     1  UNL1       -0.2701
     26 H         144.3545  140.2307  164.4781 H       1  UNL1        0.1497
     27 C         142.3710  139.6431  166.3327 C.ar    1  UNL1        0.0550
     28 C         141.5942  140.9235  166.2476 C.ar    1  UNL1        0.0160
     29 C         141.2189  141.6577  167.5005 C.ar    1  UNL1        0.0587
     30 CL        140.4421  142.9382  167.4154 Cl      1  UNL1       -0.0822
     31 C         141.6204  141.1117  168.8387 C.ar    1  UNL1        0.0228
     32 C         142.3972  139.8312  168.9238 C.ar    1  UNL1        0.0587
     33 CL        142.7987  139.2852  170.2619 Cl      1  UNL1       -0.0822
     34 C         142.7725  139.0970  167.6708 C.ar    1  UNL1        0.0160
@<TRIPOS>BOND
     1    18    19    1
     2    19    20    1
     3    19    21    1
     4    19    12    1
     5    12    13   am
     6    13    14    2
     7    13    15   am
     8    15    11    1
     9    11    10    1
    10    10     1    1
    11     1     2    1
    12     2     3    1
    13     3     4    1
    14     4     7    1
    15     7     8    1
    16     4    22    1
    17    22    23    1
    18    23    24   am
    19    24    25    2
    20    24    27    1
    21    27    28   ar
    22    28    29   ar
    23    29    30    1
    24    29    31   ar
    25    31    32   ar
    26    32    33    1
    27    32    34   ar
    28     4     5    1
    29     5     6    1
    30     6     1    1
    31    34    27   ar
    32    12    16    1
    33    15    17    1
    34     8     9    1
    35    23    26    1
@<TRIPOS>MOLECULE
*****
 34 35 0 0 0
SMALL
GASTEIGER

@<TRIPOS>ATOM
      1 N         142.2815  144.1028  160.6666 N.3     1  UNL1       -0.2712
      2 C         142.0097  144.2144  162.1375 C.3     1  UNL1        0.0723
      3 C         142.8929  143.5033  163.1195 C.3     1  UNL1        0.0214
      4 C         144.0479  142.6806  162.6306 C.3     1  UNL1        0.0478
      5 C         144.3197  142.5689  161.1597 C.3     1  UNL1        0.0214
      6 C         143.4365  143.2800  160.1777 C.3     1  UNL1        0.0723
      7 C         145.2540  141.7890  162.6555 C.3     1  UNL1        0.1387
      8 O         146.1308  141.7474  163.8719 O.3     1  UNL1       -0.3819
      9 H         146.5627  142.6081  163.9887 H       1  UNL1        0.2104
     10 C         141.3983  144.8139  159.6846 C.3     1  UNL1        0.0937
     11 C         140.2277  144.1008  159.0755 C.3     1  UNL1        0.1082
     12 N         138.0630  141.7050  161.3830 N.am    1  UNL1       -0.2921
     13 C         139.1732  142.2073  160.5083 C.2     1  UNL1        0.3007
     14 O         140.3391  141.3183  160.1915 O.2     1  UNL1       -0.2528
     15 N         139.1175  143.5986  159.9503 N.am    1  UNL1       -0.2875
     16 H         137.2978  142.2885  161.5909 H       1  UNL1        0.1508
     17 H         138.3522  144.1820  160.1582 H       1  UNL1        0.1510
     18 C         137.4511  139.7909  160.7038 C.3     1  UNL1        0.0197
     19 C         138.1187  140.3138  161.9410 C.3     1  UNL1        0.0583
     20 C         138.7862  140.8368  163.1783 C.3     1  UNL1        0.0197
     21 C         138.1744  138.9226  162.4991 C.3     1  UNL1        0.0197
     22 C         144.1950  142.4826  164.1102 C.3     1  UNL1        0.0921
     23 N         143.0897  141.8398  164.8944 N.am    1  UNL1       -0.3008
     24 C         142.9645  142.1004  166.3663 C.2     1  UNL1        0.2459
     25 O         143.9447  143.0039  167.0539 O.2     1  UNL1       -0.2701
     26 H         142.4463  141.2468  164.4431 H       1  UNL1        0.1497
     27 C         141.8591  141.4576  167.1505 C.ar    1  UNL1        0.0550
     28 C         141.8526  141.5456  168.6479 C.ar    1  UNL1        0.0160
     29 C         140.7472  140.9028  169.4321 C.ar    1  UNL1        0.0587
     30 CL        140.7407  140.9908  170.9296 Cl      1  UNL1       -0.0822
     31 C         139.6484  140.1721  168.7190 C.ar    1  UNL1        0.0228
     32 C         139.6550  140.0841  167.2215 C.ar    1  UNL1        0.0587
     33 CL        138.5562  139.3533  166.5084 Cl      1  UNL1       -0.0822
     34 C         140.7603  140.7268  166.4373 C.ar    1  UNL1        0.0160
@<TRIPOS>BOND
     1    18    19    1
     2    19    20    1
     3    19    21    1
     4    19    12    1
     5    12    13   am
     6    13    14    2
     7    13    15   am
     8    15    11    1
     9    11    10    1
    10    10     1    1
    11     1     2    1
    12     2     3    1
    13     3     4    1
    14     4     7    1
    15     7     8    1
    16     4    22    1
    17    22    23    1
    18    23    24   am
    19    24    25    2
    20    24    27    1
    21    27    28   ar
    22    28    29   ar
    23    29    30    1
    24    29    31   ar
    25    31    32   ar
    26    32    33    1
    27    32    34   ar
    28     4     5    1
    29     5     6    1
    30     6     1    1
    31    34    27   ar
    32    12    16    1
    33    15    17    1
    34     8     9    1
    35    23    26    1
@<TRIPOS>MOLECULE
*****
 34 35 0 0 0
SMALL
GASTEIGER

@<TRIPOS>ATOM
      1 N         143.2205  143.0599  160.5033 N.3     1  UNL1       -0.2712
      2 C         143.3981  143.0745  161.9927 C.3     1  UNL1        0.0723
      3 C         142.5120  143.9334  162.8453 C.3     1  UNL1        0.0214
      4 C         141.4482  144.7777  162.2086 C.3     1  UNL1        0.0478
      5 C         141.2705  144.7631  160.7193 C.3     1  UNL1        0.0214
      6 C         142.1567  143.9042  159.8666 C.3     1  UNL1        0.0723
      7 C         140.3086  145.7437  162.0728 C.3     1  UNL1        0.1387
      8 O         138.9198  145.2348  161.8231 O.3     1  UNL1       -0.3819
      9 H         138.8816  144.8147  160.9496 H       1  UNL1        0.2104
     10 C         144.1066  142.2010  159.6507 C.3     1  UNL1        0.0937
     11 C         143.7376  140.7710  159.3882 C.3     1  UNL1        0.1082
     12 N         143.2656  138.4184  162.5493 N.am    1  UNL1       -0.2921
     13 C         142.9977  139.4653  161.5090 C.2     1  UNL1        0.3007
     14 O         141.7219  140.2532  161.5490 O.2     1  UNL1       -0.2528
     15 N         144.0056  139.7242  160.4286 N.am    1  UNL1       -0.2875
     16 H         144.1029  137.9013  162.5231 H       1  UNL1        0.1508
     17 H         144.8429  139.2071  160.4023 H       1  UNL1        0.1510
     18 C         141.4355  137.3526  162.6692 C.3     1  UNL1        0.0197
     19 C         142.2578  138.1595  163.6297 C.3     1  UNL1        0.0583
     20 C         143.0801  138.9664  164.5902 C.3     1  UNL1        0.0197
     21 C         141.2500  137.9006  164.7101 C.3     1  UNL1        0.0197
     22 C         141.2300  145.1278  163.6508 C.3     1  UNL1        0.0921
     23 N         141.1856  144.0443  164.6872 N.am    1  UNL1       -0.3008
     24 C         139.9016  143.3179  164.9582 C.2     1  UNL1        0.2459
     25 O         138.6619  143.6750  164.1929 O.2     1  UNL1       -0.2701
     26 H         141.9992  143.8099  165.1895 H       1  UNL1        0.1497
     27 C         139.8572  142.2344  165.9946 C.ar    1  UNL1        0.0550
     28 C         140.6300  142.3855  167.2712 C.ar    1  UNL1        0.0160
     29 C         140.5855  141.3020  168.3076 C.ar    1  UNL1        0.0587
     30 CL        141.3584  141.4532  169.5843 Cl      1  UNL1       -0.0822
     31 C         139.7683  140.0674  168.0673 C.ar    1  UNL1        0.0228
     32 C         138.9955  139.9162  166.7906 C.ar    1  UNL1        0.0587
     33 CL        138.1783  138.6816  166.5503 Cl      1  UNL1       -0.0822
     34 C         139.0399  140.9997  165.7542 C.ar    1  UNL1        0.0160
@<TRIPOS>BOND
     1    18    19    1
     2    19    20    1
     3    19    21    1
     4    19    12    1
     5    12    13   am
     6    13    14    2
     7    13    15   am
     8    15    11    1
     9    11    10    1
    10    10     1    1
    11     1     2    1
    12     2     3    1
    13     3     4    1
    14     4     7    1
    15     7     8    1
    16     4    22    1
    17    22    23    1
    18    23    24   am
    19    24    25    2
    20    24    27    1
    21    27    28   ar
    22    28    29   ar
    23    29    30    1
    24    29    31   ar
    25    31    32   ar
    26    32    33    1
    27    32    34   ar
    28     4     5    1
    29     5     6    1
    30     6     1    1
    31    34    27   ar
    32    12    16    1
    33    15    17    1
    34     8     9    1
    35    23    26    1
