@<TRIPOS>MOLECULE
*****
 23 26 0 0 0
SMALL
GASTEIGER

@<TRIPOS>ATOM
      1 C         138.5180  138.9783  166.0876 C.ar    1  UNL1        0.1477
      2 C         138.8076  137.6142  165.5347 C.ar    1  UNL1        0.0373
      3 C         138.8046  137.3901  164.0515 C.ar    1  UNL1        0.0002
      4 C         138.5121  138.5299  163.1213 C.ar    1  UNL1       -0.0059
      5 C         138.2226  139.8939  163.6742 C.ar    1  UNL1        0.0002
      6 C         138.2256  140.1180  165.1574 C.ar    1  UNL1        0.0373
      7 O         138.5210  139.2024  167.5707 O.3     1  UNL1       -0.4313
      8 C         143.6127  142.5216  169.7300 C.ar    1  UNL1        0.0213
      9 C         142.6573  142.9494  170.8043 C.ar    1  UNL1        0.1006
     10 N         141.2440  142.4469  170.7947 N.ar    1  UNL1       -0.2245
     11 C         140.7861  141.5166  169.7108 C.ar    1  UNL1        0.1720
     12 N         139.4634  140.8620  169.4423 N.ar    1  UNL1       -0.1859
     13 C         139.6014  140.0297  168.2021 C.ar    1  UNL1        0.2642
     14 S         141.0093  140.1698  167.7040 S.2     1  UNL1       -0.0267
     15 C         141.7415  141.0888  168.6365 C.ar    1  UNL1        0.0697
     16 C         143.1548  141.5913  168.6461 C.ar    1  UNL1        0.0113
     17 C         138.5092  138.3057  161.6381 C.3     1  UNL1        0.0991
     18 N         139.8030  138.2919  160.8791 N.3     1  UNL1       -0.2690
     19 C         139.8071  138.5375  159.3994 C.3     1  UNL1        0.0724
     20 C         141.1009  138.5237  158.6405 C.3     1  UNL1        0.0174
     21 C         142.3905  138.2641  159.3613 C.3     1  UNL1        0.0029
     22 C         142.3863  138.0184  160.8410 C.3     1  UNL1        0.0174
     23 C         141.0926  138.0323  161.5999 C.3     1  UNL1        0.0724
@<TRIPOS>BOND
     1     8     9   ar
     2     9    10   ar
     3    10    11   ar
     4    11    12   ar
     5    12    13   ar
     6    13     7    1
     7     7     1    1
     8     1     2   ar
     9     2     3   ar
    10     3     4   ar
    11     4    17    1
    12    17    18    1
    13    18    19    1
    14    19    20    1
    15    20    21    1
    16    21    22    1
    17    22    23    1
    18     4     5   ar
    19     5     6   ar
    20    13    14   ar
    21    14    15   ar
    22    15    16   ar
    23    16     8   ar
    24    15    11   ar
    25     6     1   ar
    26    23    18    1
@<TRIPOS>MOLECULE
*****
 23 26 0 0 0
SMALL
GASTEIGER

@<TRIPOS>ATOM
      1 C         138.3795  138.8709  165.7449 C.ar    1  UNL1        0.1477
      2 C         138.1355  139.9745  164.7586 C.ar    1  UNL1        0.0373
      3 C         138.4183  139.7546  163.3020 C.ar    1  UNL1        0.0002
      4 C         138.9450  138.4311  162.8317 C.ar    1  UNL1       -0.0059
      5 C         139.1889  137.3276  163.8180 C.ar    1  UNL1        0.0002
      6 C         138.9061  137.5475  165.2746 C.ar    1  UNL1        0.0373
      7 O         138.0967  139.0908  167.2015 O.3     1  UNL1       -0.4313
      8 C         142.6291  142.5646  170.2006 C.ar    1  UNL1        0.0213
      9 C         141.9013  142.1238  171.4359 C.ar    1  UNL1        0.1006
     10 N         140.6921  141.2437  171.3202 N.ar    1  UNL1       -0.2245
     11 C         140.2108  140.8044  169.9692 C.ar    1  UNL1        0.1720
     12 N         139.0576  139.9437  169.5455 N.ar    1  UNL1       -0.1859
     13 C         139.0728  139.8526  168.0483 C.ar    1  UNL1        0.2642
     14 S         140.2352  140.6569  167.5467 S.2     1  UNL1       -0.0267
     15 C         140.9386  141.2452  168.7339 C.ar    1  UNL1        0.0697
     16 C         142.1477  142.1252  168.8496 C.ar    1  UNL1        0.0113
     17 C         139.2278  138.2112  161.3751 C.3     1  UNL1        0.0991
     18 N         140.5995  138.4766  160.8290 N.3     1  UNL1       -0.2690
     19 C         141.7980  137.8436  161.4715 C.3     1  UNL1        0.0724
     20 C         143.1696  138.1091  160.9254 C.3     1  UNL1        0.0174
     21 C         143.3427  139.0075  159.7367 C.3     1  UNL1        0.0029
     22 C         142.1441  139.6405  159.0942 C.3     1  UNL1        0.0174
     23 C         140.7725  139.3751  159.6403 C.3     1  UNL1        0.0724
@<TRIPOS>BOND
     1     8     9   ar
     2     9    10   ar
     3    10    11   ar
     4    11    12   ar
     5    12    13   ar
     6    13     7    1
     7     7     1    1
     8     1     2   ar
     9     2     3   ar
    10     3     4   ar
    11     4    17    1
    12    17    18    1
    13    18    19    1
    14    19    20    1
    15    20    21    1
    16    21    22    1
    17    22    23    1
    18     4     5   ar
    19     5     6   ar
    20    13    14   ar
    21    14    15   ar
    22    15    16   ar
    23    16     8   ar
    24    15    11   ar
    25     6     1   ar
    26    23    18    1
@<TRIPOS>MOLECULE
*****
 23 26 0 0 0
SMALL
GASTEIGER

@<TRIPOS>ATOM
      1 C         139.0951  138.1062  164.9331 C.ar    1  UNL1        0.1477
      2 C         138.0051  138.1198  165.9636 C.ar    1  UNL1        0.0373
      3 C         138.1658  138.9319  167.2145 C.ar    1  UNL1        0.0002
      4 C         139.4164  139.7304  167.4349 C.ar    1  UNL1       -0.0059
      5 C         140.5063  139.7167  166.4044 C.ar    1  UNL1        0.0002
      6 C         140.3456  138.9046  165.1535 C.ar    1  UNL1        0.0373
      7 O         138.9344  137.2941  163.6822 O.3     1  UNL1       -0.4313
      8 C         138.5168  140.5149  158.1094 C.ar    1  UNL1        0.0213
      9 C         139.7967  139.7965  157.8002 C.ar    1  UNL1        0.1006
     10 N         140.3916  138.8570  158.8069 N.ar    1  UNL1       -0.2245
     11 C         139.7066  138.6360  160.1229 C.ar    1  UNL1        0.1720
     12 N         140.0526  137.7768  161.3027 N.ar    1  UNL1       -0.1859
     13 C         138.9865  137.9641  162.3412 C.ar    1  UNL1        0.2642
     14 S         137.9816  138.9391  161.8031 S.2     1  UNL1       -0.0267
     15 C         138.4267  139.3544  160.4321 C.ar    1  UNL1        0.0697
     16 C         137.8318  140.2938  159.4254 C.ar    1  UNL1        0.0113
     17 C         139.5771  140.5425  168.6857 C.3     1  UNL1        0.0991
     18 N         140.9484  140.9054  169.1734 N.3     1  UNL1       -0.2690
     19 C         141.5346  142.2442  168.8356 C.3     1  UNL1        0.0724
     20 C         142.9060  142.6071  169.3232 C.3     1  UNL1        0.0174
     21 C         143.6911  141.6312  170.1486 C.3     1  UNL1        0.0029
     22 C         143.1049  140.2924  170.4863 C.3     1  UNL1        0.0174
     23 C         141.7336  139.9295  169.9987 C.3     1  UNL1        0.0724
@<TRIPOS>BOND
     1     8     9   ar
     2     9    10   ar
     3    10    11   ar
     4    11    12   ar
     5    12    13   ar
     6    13     7    1
     7     7     1    1
     8     1     2   ar
     9     2     3   ar
    10     3     4   ar
    11     4    17    1
    12    17    18    1
    13    18    19    1
    14    19    20    1
    15    20    21    1
    16    21    22    1
    17    22    23    1
    18     4     5   ar
    19     5     6   ar
    20    13    14   ar
    21    14    15   ar
    22    15    16   ar
    23    16     8   ar
    24    15    11   ar
    25     6     1   ar
    26    23    18    1
@<TRIPOS>MOLECULE
*****
 23 26 0 0 0
SMALL
GASTEIGER

@<TRIPOS>ATOM
      1 C         138.3922  138.8976  165.7285 C.ar    1  UNL1        0.1477
      2 C         138.0532  140.0331  164.8088 C.ar    1  UNL1        0.0373
      3 C         138.2748  139.8937  163.3318 C.ar    1  UNL1        0.0002
      4 C         138.8355  138.6189  162.7746 C.ar    1  UNL1       -0.0059
      5 C         139.1745  137.4834  163.6942 C.ar    1  UNL1        0.0002
      6 C         138.9528  137.6228  165.1712 C.ar    1  UNL1        0.0373
      7 O         138.1706  139.0369  167.2055 O.3     1  UNL1       -0.4313
      8 C         142.6403  142.6504  170.1327 C.ar    1  UNL1        0.0213
      9 C         141.9222  142.2192  171.3771 C.ar    1  UNL1        0.1006
     10 N         140.7297  141.3147  171.2795 N.ar    1  UNL1       -0.2245
     11 C         140.2552  140.8412  169.9377 C.ar    1  UNL1        0.1720
     12 N         139.1179  139.9514  169.5318 N.ar    1  UNL1       -0.1859
     13 C         139.1331  139.8325  168.0365 C.ar    1  UNL1        0.2642
     14 S         140.2798  140.6490  167.5183 S.2     1  UNL1       -0.0267
     15 C         140.9732  141.2724  168.6933 C.ar    1  UNL1        0.0697
     16 C         142.1658  142.1770  168.7909 C.ar    1  UNL1        0.0113
     17 C         139.0571  138.4795  161.2976 C.3     1  UNL1        0.0991
     18 N         139.3425  139.6937  160.4642 N.3     1  UNL1       -0.2690
     19 C         138.2393  140.3428  159.6821 C.3     1  UNL1        0.0724
     20 C         138.5247  141.5569  158.8487 C.3     1  UNL1        0.0174
     21 C         139.9133  142.1219  158.7974 C.3     1  UNL1        0.0029
     22 C         141.0165  141.4727  159.5795 C.3     1  UNL1        0.0174
     23 C         140.7311  140.2587  160.4128 C.3     1  UNL1        0.0724
@<TRIPOS>BOND
     1     8     9   ar
     2     9    10   ar
     3    10    11   ar
     4    11    12   ar
     5    12    13   ar
     6    13     7    1
     7     7     1    1
     8     1     2   ar
     9     2     3   ar
    10     3     4   ar
    11     4    17    1
    12    17    18    1
    13    18    19    1
    14    19    20    1
    15    20    21    1
    16    21    22    1
    17    22    23    1
    18     4     5   ar
    19     5     6   ar
    20    13    14   ar
    21    14    15   ar
    22    15    16   ar
    23    16     8   ar
    24    15    11   ar
    25     6     1   ar
    26    23    18    1
@<TRIPOS>MOLECULE
*****
 23 26 0 0 0
SMALL
GASTEIGER

@<TRIPOS>ATOM
      1 C         144.1070  139.6011  164.1932 C.ar    1  UNL1        0.1477
      2 C         145.0715  140.7477  164.2645 C.ar    1  UNL1        0.0373
      3 C         145.2515  141.6511  163.0806 C.ar    1  UNL1        0.0002
      4 C         144.4670  141.4078  161.8254 C.ar    1  UNL1       -0.0059
      5 C         143.5025  140.2613  161.7542 C.ar    1  UNL1        0.0002
      6 C         143.3225  139.3579  162.9380 C.ar    1  UNL1        0.0373
      7 O         143.9269  138.6977  165.3770 O.3     1  UNL1       -0.4313
      8 C         139.3705  140.5597  169.5456 C.ar    1  UNL1        0.0213
      9 C         140.3588  140.0836  170.5686 C.ar    1  UNL1        0.1006
     10 N         141.6767  139.5163  170.1311 N.ar    1  UNL1       -0.2245
     11 C         142.0063  139.4250  168.6706 C.ar    1  UNL1        0.1720
     12 N         143.2162  138.9163  167.9446 N.ar    1  UNL1       -0.1859
     13 C         142.9757  139.0780  166.4728 C.ar    1  UNL1        0.2642
     14 S         141.6171  139.6866  166.2892 S.2     1  UNL1       -0.0267
     15 C         141.0180  139.9011  167.6476 C.ar    1  UNL1        0.0697
     16 C         139.7001  140.4684  168.0851 C.ar    1  UNL1        0.0113
     17 C         144.6470  142.3112  160.6416 C.3     1  UNL1        0.0991
     18 N         143.5167  143.1865  160.1873 N.3     1  UNL1       -0.2690
     19 C         143.3045  143.4383  158.7240 C.3     1  UNL1        0.0724
     20 C         142.1741  144.3136  158.2697 C.3     1  UNL1        0.0174
     21 C         141.2561  144.9371  159.2789 C.3     1  UNL1        0.0029
     22 C         141.4683  144.6852  160.7424 C.3     1  UNL1        0.0174
     23 C         142.5986  143.8099  161.1965 C.3     1  UNL1        0.0724
@<TRIPOS>BOND
     1     8     9   ar
     2     9    10   ar
     3    10    11   ar
     4    11    12   ar
     5    12    13   ar
     6    13     7    1
     7     7     1    1
     8     1     2   ar
     9     2     3   ar
    10     3     4   ar
    11     4    17    1
    12    17    18    1
    13    18    19    1
    14    19    20    1
    15    20    21    1
    16    21    22    1
    17    22    23    1
    18     4     5   ar
    19     5     6   ar
    20    13    14   ar
    21    14    15   ar
    22    15    16   ar
    23    16     8   ar
    24    15    11   ar
    25     6     1   ar
    26    23    18    1
@<TRIPOS>MOLECULE
*****
 23 26 0 0 0
SMALL
GASTEIGER

@<TRIPOS>ATOM
      1 C         139.1819  143.7250  163.9533 C.ar    1  UNL1        0.1477
      2 C         138.2434  142.5910  163.6640 C.ar    1  UNL1        0.0373
      3 C         138.2473  141.3726  164.5388 C.ar    1  UNL1        0.0002
      4 C         139.1895  141.2880  165.7029 C.ar    1  UNL1       -0.0059
      5 C         140.1279  142.4219  165.9921 C.ar    1  UNL1        0.0002
      6 C         140.1241  143.6404  165.1173 C.ar    1  UNL1        0.0373
      7 O         139.1780  144.9434  163.0784 O.3     1  UNL1       -0.4313
      8 C         142.6606  144.2896  157.6887 C.ar    1  UNL1        0.0213
      9 C         141.7957  145.4143  157.2022 C.ar    1  UNL1        0.1006
     10 N         140.7447  145.9953  158.1011 N.ar    1  UNL1       -0.2245
     11 C         140.5587  145.4515  159.4866 C.ar    1  UNL1        0.1720
     12 N         139.6123  145.8194  160.5906 N.ar    1  UNL1       -0.1859
     13 C         139.8922  144.9220  161.7595 C.ar    1  UNL1        0.2642
     14 S         141.0117  143.9994  161.3779 S.2     1  UNL1       -0.0267
     15 C         141.4236  144.3267  159.9731 C.ar    1  UNL1        0.0697
     16 C         142.4746  143.7458  159.0742 C.ar    1  UNL1        0.0113
     17 C         139.1934  140.0696  166.5778 C.3     1  UNL1        0.0991
     18 N         140.2074  139.9375  167.6753 N.3     1  UNL1       -0.2690
     19 C         141.6327  139.6082  167.3439 C.3     1  UNL1        0.0724
     20 C         142.6467  139.4761  168.4414 C.3     1  UNL1        0.0174
     21 C         142.2352  139.6733  169.8703 C.3     1  UNL1        0.0029
     22 C         140.8098  140.0026  170.2017 C.3     1  UNL1        0.0174
     23 C         139.7959  140.1347  169.1042 C.3     1  UNL1        0.0724
@<TRIPOS>BOND
     1     8     9   ar
     2     9    10   ar
     3    10    11   ar
     4    11    12   ar
     5    12    13   ar
     6    13     7    1
     7     7     1    1
     8     1     2   ar
     9     2     3   ar
    10     3     4   ar
    11     4    17    1
    12    17    18    1
    13    18    19    1
    14    19    20    1
    15    20    21    1
    16    21    22    1
    17    22    23    1
    18     4     5   ar
    19     5     6   ar
    20    13    14   ar
    21    14    15   ar
    22    15    16   ar
    23    16     8   ar
    24    15    11   ar
    25     6     1   ar
    26    23    18    1
@<TRIPOS>MOLECULE
*****
 23 26 0 0 0
SMALL
GASTEIGER

@<TRIPOS>ATOM
      1 C         138.6257  140.3347  164.4584 C.ar    1  UNL1        0.1477
      2 C         138.1094  139.2387  165.3430 C.ar    1  UNL1        0.0373
      3 C         138.5365  139.1702  166.7793 C.ar    1  UNL1        0.0002
      4 C         139.4799  140.1977  167.3310 C.ar    1  UNL1       -0.0059
      5 C         139.9961  141.2936  166.4465 C.ar    1  UNL1        0.0002
      6 C         139.5691  141.3621  165.0102 C.ar    1  UNL1        0.0373
      7 O         138.1987  140.4031  163.0222 O.3     1  UNL1       -0.4313
      8 C         141.4824  143.9815  158.7775 C.ar    1  UNL1        0.0213
      9 C         140.5940  145.0801  159.2814 C.ar    1  UNL1        0.1006
     10 N         139.5741  144.7924  160.3430 N.ar    1  UNL1       -0.2245
     11 C         139.4425  143.4061  160.9007 C.ar    1  UNL1        0.1720
     12 N         138.5357  142.8265  161.9455 N.ar    1  UNL1       -0.1859
     13 C         138.8636  141.3696  162.0873 C.ar    1  UNL1        0.2642
     14 S         139.9730  141.0489  161.1301 S.2     1  UNL1       -0.0267
     15 C         140.3308  142.3076  160.3967 C.ar    1  UNL1        0.0697
     16 C         141.3507  142.5953  159.3351 C.ar    1  UNL1        0.0113
     17 C         139.9069  140.1292  168.7673 C.3     1  UNL1        0.0991
     18 N         140.9509  141.0738  169.2852 N.3     1  UNL1       -0.2690
     19 C         140.5608  142.4523  169.7297 C.3     1  UNL1        0.0724
     20 C         141.6047  143.3968  170.2476 C.3     1  UNL1        0.0174
     21 C         143.0387  142.9628  170.3210 C.3     1  UNL1        0.0029
     22 C         143.4287  141.5842  169.8764 C.3     1  UNL1        0.0174
     23 C         142.3848  140.6398  169.3586 C.3     1  UNL1        0.0724
@<TRIPOS>BOND
     1     8     9   ar
     2     9    10   ar
     3    10    11   ar
     4    11    12   ar
     5    12    13   ar
     6    13     7    1
     7     7     1    1
     8     1     2   ar
     9     2     3   ar
    10     3     4   ar
    11     4    17    1
    12    17    18    1
    13    18    19    1
    14    19    20    1
    15    20    21    1
    16    21    22    1
    17    22    23    1
    18     4     5   ar
    19     5     6   ar
    20    13    14   ar
    21    14    15   ar
    22    15    16   ar
    23    16     8   ar
    24    15    11   ar
    25     6     1   ar
    26    23    18    1
@<TRIPOS>MOLECULE
*****
 23 26 0 0 0
SMALL
GASTEIGER

@<TRIPOS>ATOM
      1 C         143.0398  138.3505  165.3013 C.ar    1  UNL1        0.1477
      2 C         141.8210  137.5623  164.9224 C.ar    1  UNL1        0.0373
      3 C         141.4177  137.4512  163.4819 C.ar    1  UNL1        0.0002
      4 C         142.2332  138.1282  162.4203 C.ar    1  UNL1       -0.0059
      5 C         143.4519  138.9163  162.7994 C.ar    1  UNL1        0.0002
      6 C         143.8552  139.0274  164.2398 C.ar    1  UNL1        0.0373
      7 O         143.4430  138.4616  166.7418 O.3     1  UNL1       -0.4313
      8 C         140.2700  143.0455  169.9860 C.ar    1  UNL1        0.0213
      9 C         140.6900  142.2441  171.1823 C.ar    1  UNL1        0.1006
     10 N         141.5008  140.9951  171.0014 N.ar    1  UNL1       -0.2245
     11 C         141.8917  140.5476  169.6241 C.ar    1  UNL1        0.1720
     12 N         142.6812  139.3685  169.1382 N.ar    1  UNL1       -0.1859
     13 C         142.7492  139.4411  167.6415 C.ar    1  UNL1        0.2642
     14 S         142.0017  140.6652  167.2024 S.2     1  UNL1       -0.0267
     15 C         141.4717  141.3490  168.4278 C.ar    1  UNL1        0.0697
     16 C         140.6608  142.5979  168.6087 C.ar    1  UNL1        0.0113
     17 C         141.8299  138.0171  160.9799 C.3     1  UNL1        0.0991
     18 N         140.7442  138.8971  160.4349 N.3     1  UNL1       -0.2690
     19 C         140.2309  138.6800  159.0423 C.3     1  UNL1        0.0724
     20 C         139.1452  139.5600  158.4974 C.3     1  UNL1        0.0174
     21 C         138.5728  140.6571  159.3452 C.3     1  UNL1        0.0029
     22 C         139.0861  140.8741  160.7379 C.3     1  UNL1        0.0174
     23 C         140.1717  139.9942  161.2827 C.3     1  UNL1        0.0724
@<TRIPOS>BOND
     1     8     9   ar
     2     9    10   ar
     3    10    11   ar
     4    11    12   ar
     5    12    13   ar
     6    13     7    1
     7     7     1    1
     8     1     2   ar
     9     2     3   ar
    10     3     4   ar
    11     4    17    1
    12    17    18    1
    13    18    19    1
    14    19    20    1
    15    20    21    1
    16    21    22    1
    17    22    23    1
    18     4     5   ar
    19     5     6   ar
    20    13    14   ar
    21    14    15   ar
    22    15    16   ar
    23    16     8   ar
    24    15    11   ar
    25     6     1   ar
    26    23    18    1
@<TRIPOS>MOLECULE
*****
 23 26 0 0 0
SMALL
GASTEIGER

@<TRIPOS>ATOM
      1 C         140.5458  137.9907  162.5646 C.ar    1  UNL1        0.1477
      2 C         141.3478  137.7503  163.8093 C.ar    1  UNL1        0.0373
      3 C         140.7849  138.1251  165.1482 C.ar    1  UNL1        0.0002
      4 C         139.4201  138.7403  165.2425 C.ar    1  UNL1       -0.0059
      5 C         138.6182  138.9807  163.9979 C.ar    1  UNL1        0.0002
      6 C         139.1810  138.6059  162.6590 C.ar    1  UNL1        0.0373
      7 O         141.1086  137.6159  161.2257 O.3     1  UNL1       -0.4313
      8 C         144.5077  142.3484  158.4591 C.ar    1  UNL1        0.0213
      9 C         144.8727  141.2746  157.4774 C.ar    1  UNL1        0.1006
     10 N         144.3290  139.8870  157.6471 N.ar    1  UNL1       -0.2245
     11 C         143.4202  139.5731  158.7984 C.ar    1  UNL1        0.1720
     12 N         142.7355  138.3070  159.2205 N.ar    1  UNL1       -0.1859
     13 C         141.9472  138.5983  160.4630 C.ar    1  UNL1        0.2642
     14 S         142.1448  140.0444  160.8089 S.2     1  UNL1       -0.0267
     15 C         143.0552  140.6469  159.7801 C.ar    1  UNL1        0.0697
     16 C         143.5990  142.0345  159.6105 C.ar    1  UNL1        0.0113
     17 C         138.8573  139.1151  166.5815 C.3     1  UNL1        0.0991
     18 N         139.4189  140.2877  167.3295 N.3     1  UNL1       -0.2690
     19 C         139.9647  141.4654  166.5777 C.3     1  UNL1        0.0724
     20 C         140.5263  142.6380  167.3257 C.3     1  UNL1        0.0174
     21 C         140.5422  142.6329  168.8257 C.3     1  UNL1        0.0029
     22 C         139.9965  141.4552  169.5775 C.3     1  UNL1        0.0174
     23 C         139.4348  140.2827  168.8294 C.3     1  UNL1        0.0724
@<TRIPOS>BOND
     1     8     9   ar
     2     9    10   ar
     3    10    11   ar
     4    11    12   ar
     5    12    13   ar
     6    13     7    1
     7     7     1    1
     8     1     2   ar
     9     2     3   ar
    10     3     4   ar
    11     4    17    1
    12    17    18    1
    13    18    19    1
    14    19    20    1
    15    20    21    1
    16    21    22    1
    17    22    23    1
    18     4     5   ar
    19     5     6   ar
    20    13    14   ar
    21    14    15   ar
    22    15    16   ar
    23    16     8   ar
    24    15    11   ar
    25     6     1   ar
    26    23    18    1
