@<TRIPOS>MOLECULE
*****
 25 27 0 0 0
SMALL
GASTEIGER

@<TRIPOS>ATOM
      1 C         139.0173  139.2012  166.6429 C.2     1  UNL1        0.2461
      2 O         137.5727  138.8084  166.5483 O.2     1  UNL1       -0.2701
      3 N         139.9745  138.8064  165.5577 N.am    1  UNL1       -0.2969
      4 H         140.9226  139.0642  165.6198 H       1  UNL1        0.1501
      5 N         143.4457  143.8825  171.1259 N.pl3   1  UNL1       -0.3375
      6 C         142.4313  142.9703  170.5023 C.ar    1  UNL1        0.1567
      7 N         141.2020  142.4303  171.1711 N.ar    1  UNL1       -0.2245
      8 C         140.4791  141.5642  170.1826 C.ar    1  UNL1        0.0892
      9 C         139.2094  140.7718  170.2824 C.ar    1  UNL1        0.0198
     10 C         138.7221  139.9842  169.1026 C.ar    1  UNL1        0.0061
     11 C         139.5046  139.9889  167.8228 C.ar    1  UNL1        0.0540
     12 C         140.7743  140.7812  167.7230 C.ar    1  UNL1        0.0126
     13 C         141.2615  141.5689  168.9028 C.ar    1  UNL1        0.0498
     14 S         142.4681  142.4379  169.1005 S.2     1  UNL1       -0.0520
     15 H         143.3338  144.1792  172.0579 H       1  UNL1        0.1442
     16 H         144.2233  144.1846  170.6031 H       1  UNL1        0.1442
     17 C         139.4872  138.0187  164.3777 C.3     1  UNL1        0.1166
     18 C         139.1485  138.7201  163.0959 C.ar    1  UNL1       -0.0017
     19 C         139.3168  138.0102  161.7853 C.ar    1  UNL1       -0.0017
     20 C         138.9780  138.7116  160.5034 C.ar    1  UNL1        0.0120
     21 C         138.4710  140.1231  160.5321 C.ar    1  UNL1        0.0682
     22 CL        138.1323  140.8245  159.2503 Cl      1  UNL1       -0.0814
     23 C         138.3027  140.8330  161.8427 C.ar    1  UNL1        0.0679
     24 CL        137.7957  142.2444  161.8715 Cl      1  UNL1       -0.0814
     25 C         138.6415  140.1315  163.1246 C.ar    1  UNL1        0.0096
@<TRIPOS>BOND
     1     5     6    1
     2     6     7   ar
     3     7     8   ar
     4     8     9   ar
     5     9    10   ar
     6    10    11   ar
     7    11     1    1
     8     1     2    2
     9     1     3   am
    10     3    17    1
    11    17    18    1
    12    18    19   ar
    13    19    20   ar
    14    20    21   ar
    15    21    22    1
    16    21    23   ar
    17    23    24    1
    18    23    25   ar
    19    11    12   ar
    20    12    13   ar
    21    13    14   ar
    22    14     6   ar
    23    13     8   ar
    24    25    18   ar
    25     5    15    1
    26     5    16    1
    27     3     4    1
@<TRIPOS>MOLECULE
*****
 25 27 0 0 0
SMALL
GASTEIGER

@<TRIPOS>ATOM
      1 C         139.0637  139.4769  166.1667 C.2     1  UNL1        0.2461
      2 O         138.1053  140.1944  165.2630 O.2     1  UNL1       -0.2701
      3 N         139.5486  138.1038  165.8071 N.am    1  UNL1       -0.2969
      4 H         140.1777  137.6329  166.4002 H       1  UNL1        0.1501
      5 N         143.3314  143.8044  171.1348 N.pl3   1  UNL1       -0.3375
      6 C         142.3562  142.9186  170.4177 C.ar    1  UNL1        0.1567
      7 N         141.1826  142.2176  171.0353 N.ar    1  UNL1       -0.2245
      8 C         140.4844  141.4440  169.9564 C.ar    1  UNL1        0.0892
      9 C         139.2688  140.5655  169.9776 C.ar    1  UNL1        0.0198
     10 C         138.7953  139.9098  168.7143 C.ar    1  UNL1        0.0061
     11 C         139.5373  140.1326  167.4299 C.ar    1  UNL1        0.0540
     12 C         140.7529  141.0112  167.4088 C.ar    1  UNL1        0.0126
     13 C         141.2264  141.6669  168.6720 C.ar    1  UNL1        0.0498
     14 S         142.3832  142.5782  168.9571 S.2     1  UNL1       -0.0520
     15 H         143.2297  143.9684  172.1002 H       1  UNL1        0.1442
     16 H         144.0732  144.2218  170.6401 H       1  UNL1        0.1442
     17 C         139.0750  137.4480  164.5438 C.3     1  UNL1        0.1166
     18 C         139.7738  137.7273  163.2463 C.ar    1  UNL1       -0.0017
     19 C         138.9751  138.0549  162.0196 C.ar    1  UNL1       -0.0017
     20 C         139.6739  138.3342  160.7221 C.ar    1  UNL1        0.0120
     21 C         141.1715  138.2859  160.6512 C.ar    1  UNL1        0.0682
     22 CL        141.8704  138.5651  159.3537 Cl      1  UNL1       -0.0814
     23 C         141.9702  137.9582  161.8779 C.ar    1  UNL1        0.0679
     24 CL        143.4677  137.9098  161.8070 Cl      1  UNL1       -0.0814
     25 C         141.2713  137.6789  163.1755 C.ar    1  UNL1        0.0096
@<TRIPOS>BOND
     1     5     6    1
     2     6     7   ar
     3     7     8   ar
     4     8     9   ar
     5     9    10   ar
     6    10    11   ar
     7    11     1    1
     8     1     2    2
     9     1     3   am
    10     3    17    1
    11    17    18    1
    12    18    19   ar
    13    19    20   ar
    14    20    21   ar
    15    21    22    1
    16    21    23   ar
    17    23    24    1
    18    23    25   ar
    19    11    12   ar
    20    12    13   ar
    21    13    14   ar
    22    14     6   ar
    23    13     8   ar
    24    25    18   ar
    25     5    15    1
    26     5    16    1
    27     3     4    1
@<TRIPOS>MOLECULE
*****
 25 27 0 0 0
SMALL
GASTEIGER

@<TRIPOS>ATOM
      1 C         143.4373  138.9975  166.8145 C.2     1  UNL1        0.2461
      2 O         144.1756  137.6939  166.8896 O.2     1  UNL1       -0.2701
      3 N         143.4321  139.7839  165.5372 N.am    1  UNL1       -0.2969
      4 H         142.9475  140.6395  165.4879 H       1  UNL1        0.1501
      5 N         138.9980  143.5615  171.4064 N.pl3   1  UNL1       -0.3375
      6 C         139.8713  142.5249  170.7639 C.ar    1  UNL1        0.1567
      7 N         140.4225  141.2998  171.4313 N.ar    1  UNL1       -0.2245
      8 C         141.2386  140.5491  170.4212 C.ar    1  UNL1        0.0892
      9 C         142.0183  139.2708  170.5107 C.ar    1  UNL1        0.0198
     10 C         142.7512  138.7536  169.3084 C.ar    1  UNL1        0.0061
     11 C         142.7044  139.5147  168.0167 C.ar    1  UNL1        0.0540
     12 C         141.9247  140.7930  167.9272 C.ar    1  UNL1        0.0126
     13 C         141.1918  141.3102  169.1294 C.ar    1  UNL1        0.0498
     14 S         140.3468  142.5313  169.3413 S.2     1  UNL1       -0.0520
     15 H         138.7380  143.4691  172.3514 H       1  UNL1        0.1442
     16 H         138.6849  144.3343  170.8830 H       1  UNL1        0.1442
     17 C         144.1650  139.2666  164.3349 C.3     1  UNL1        0.1166
     18 C         144.2335  140.0934  163.0852 C.ar    1  UNL1       -0.0017
     19 C         144.7678  141.4939  163.1408 C.ar    1  UNL1       -0.0017
     20 C         144.8363  142.3206  161.8911 C.ar    1  UNL1        0.0120
     21 C         144.3705  141.7468  160.5858 C.ar    1  UNL1        0.0682
     22 CL        144.4390  142.5736  159.3361 Cl      1  UNL1       -0.0814
     23 C         143.8362  140.3463  160.5302 C.ar    1  UNL1        0.0679
     24 CL        143.3704  139.7726  159.2249 Cl      1  UNL1       -0.0814
     25 C         143.7677  139.5196  161.7800 C.ar    1  UNL1        0.0096
@<TRIPOS>BOND
     1     5     6    1
     2     6     7   ar
     3     7     8   ar
     4     8     9   ar
     5     9    10   ar
     6    10    11   ar
     7    11     1    1
     8     1     2    2
     9     1     3   am
    10     3    17    1
    11    17    18    1
    12    18    19   ar
    13    19    20   ar
    14    20    21   ar
    15    21    22    1
    16    21    23   ar
    17    23    24    1
    18    23    25   ar
    19    11    12   ar
    20    12    13   ar
    21    13    14   ar
    22    14     6   ar
    23    13     8   ar
    24    25    18   ar
    25     5    15    1
    26     5    16    1
    27     3     4    1
@<TRIPOS>MOLECULE
*****
 25 27 0 0 0
SMALL
GASTEIGER

@<TRIPOS>ATOM
      1 C         139.5938  139.4329  165.6747 C.2     1  UNL1        0.2461
      2 O         138.1852  139.9445  165.7391 O.2     1  UNL1       -0.2701
      3 N         139.9730  138.4073  164.6479 N.am    1  UNL1       -0.2969
      4 H         140.8974  138.0715  164.6056 H       1  UNL1        0.1501
      5 N         143.0815  143.8210  171.1705 N.pl3   1  UNL1       -0.3375
      6 C         142.6618  142.8341  170.1217 C.ar    1  UNL1        0.1567
      7 N         143.4927  141.7028  169.5928 N.ar    1  UNL1       -0.2245
      8 C         142.6820  140.9747  168.5618 C.ar    1  UNL1        0.0892
      9 C         142.9845  139.7794  167.7077 C.ar    1  UNL1        0.0198
     10 C         141.9551  139.2655  166.7454 C.ar    1  UNL1        0.0061
     11 C         140.6232  139.9469  166.6371 C.ar    1  UNL1        0.0540
     12 C         140.3207  141.1422  167.4913 C.ar    1  UNL1        0.0126
     13 C         141.3501  141.6562  168.4536 C.ar    1  UNL1        0.0498
     14 S         141.3377  142.8053  169.4176 S.2     1  UNL1       -0.0520
     15 H         143.9763  143.7575  171.5761 H       1  UNL1        0.1442
     16 H         142.4622  144.5322  171.4531 H       1  UNL1        0.1442
     17 C         138.9435  137.8933  163.6855 C.3     1  UNL1        0.1166
     18 C         138.7396  138.5804  162.3678 C.ar    1  UNL1       -0.0017
     19 C         137.8091  139.7527  162.2693 C.ar    1  UNL1       -0.0017
     20 C         137.6051  140.4397  160.9516 C.ar    1  UNL1        0.0120
     21 C         138.3317  139.9544  159.7323 C.ar    1  UNL1        0.0682
     22 CL        138.1277  140.6414  158.4146 Cl      1  UNL1       -0.0814
     23 C         139.2622  138.7820  159.8308 C.ar    1  UNL1        0.0679
     24 CL        139.9887  138.2966  158.6116 Cl      1  UNL1       -0.0814
     25 C         139.4661  138.0950  161.1486 C.ar    1  UNL1        0.0096
@<TRIPOS>BOND
     1     5     6    1
     2     6     7   ar
     3     7     8   ar
     4     8     9   ar
     5     9    10   ar
     6    10    11   ar
     7    11     1    1
     8     1     2    2
     9     1     3   am
    10     3    17    1
    11    17    18    1
    12    18    19   ar
    13    19    20   ar
    14    20    21   ar
    15    21    22    1
    16    21    23   ar
    17    23    24    1
    18    23    25   ar
    19    11    12   ar
    20    12    13   ar
    21    13    14   ar
    22    14     6   ar
    23    13     8   ar
    24    25    18   ar
    25     5    15    1
    26     5    16    1
    27     3     4    1
@<TRIPOS>MOLECULE
*****
 25 27 0 0 0
SMALL
GASTEIGER

@<TRIPOS>ATOM
      1 C         139.0492  139.7692  164.7782 C.2     1  UNL1        0.2461
      2 O         138.5982  138.5099  164.0995 O.2     1  UNL1       -0.2701
      3 N         138.4531  141.0882  164.3846 N.am    1  UNL1       -0.2969
      4 H         138.7492  141.9147  164.8300 H       1  UNL1        0.1501
      5 N         142.5725  140.4578  171.7593 N.pl3   1  UNL1       -0.3375
      6 C         142.1528  140.2205  170.3389 C.ar    1  UNL1        0.1567
      7 N         143.0121  139.6520  169.2488 N.ar    1  UNL1       -0.2245
      8 C         142.1905  139.5902  167.9954 C.ar    1  UNL1        0.0892
      9 C         142.5106  139.1195  166.6076 C.ar    1  UNL1        0.0198
     10 C         141.4635  139.1792  165.5353 C.ar    1  UNL1        0.0061
     11 C         140.0963  139.7095  165.8507 C.ar    1  UNL1        0.0540
     12 C         139.7762  140.1802  167.2384 C.ar    1  UNL1        0.0126
     13 C         140.8233  140.1205  168.3108 C.ar    1  UNL1        0.0498
     14 S         140.8000  140.5101  169.7592 S.2     1  UNL1       -0.0520
     15 H         143.4874  140.2343  172.0461 H       1  UNL1        0.1442
     16 H         141.9332  140.8372  172.4047 H       1  UNL1        0.1442
     17 C         137.4060  141.1478  163.3121 C.3     1  UNL1        0.1166
     18 C         137.8123  141.1924  161.8689 C.ar    1  UNL1       -0.0017
     19 C         137.5651  140.0073  160.9832 C.ar    1  UNL1       -0.0017
     20 C         137.9714  140.0519  159.5400 C.ar    1  UNL1        0.0120
     21 C         138.6248  141.2817  158.9824 C.ar    1  UNL1        0.0682
     22 CL        139.0311  141.3263  157.5392 Cl      1  UNL1       -0.0814
     23 C         138.8720  142.4668  159.8681 C.ar    1  UNL1        0.0679
     24 CL        139.5254  143.6965  159.3106 Cl      1  UNL1       -0.0814
     25 C         138.4657  142.4221  161.3114 C.ar    1  UNL1        0.0096
@<TRIPOS>BOND
     1     5     6    1
     2     6     7   ar
     3     7     8   ar
     4     8     9   ar
     5     9    10   ar
     6    10    11   ar
     7    11     1    1
     8     1     2    2
     9     1     3   am
    10     3    17    1
    11    17    18    1
    12    18    19   ar
    13    19    20   ar
    14    20    21   ar
    15    21    22    1
    16    21    23   ar
    17    23    24    1
    18    23    25   ar
    19    11    12   ar
    20    12    13   ar
    21    13    14   ar
    22    14     6   ar
    23    13     8   ar
    24    25    18   ar
    25     5    15    1
    26     5    16    1
    27     3     4    1
@<TRIPOS>MOLECULE
*****
 25 27 0 0 0
SMALL
GASTEIGER

@<TRIPOS>ATOM
      1 C         143.3621  140.3879  165.3167 C.2     1  UNL1        0.2461
      2 O         143.9556  141.5968  164.6561 O.2     1  UNL1       -0.2701
      3 N         143.4300  139.0525  164.6370 N.am    1  UNL1       -0.2969
      4 H         143.0404  138.2591  165.0705 H       1  UNL1        0.1501
      5 N         139.2053  143.3190  171.2960 N.pl3   1  UNL1       -0.3375
      6 C         140.0376  142.5325  170.3272 C.ar    1  UNL1        0.1567
      7 N         140.6232  141.1728  170.5690 N.ar    1  UNL1       -0.2245
      8 C         141.3781  140.7676  169.3378 C.ar    1  UNL1        0.0892
      9 C         142.1584  139.5318  169.0002 C.ar    1  UNL1        0.0198
     10 C         142.8197  139.4053  167.6599 C.ar    1  UNL1        0.0061
     11 C         142.7007  140.5145  166.6571 C.ar    1  UNL1        0.0540
     12 C         141.9204  141.7502  166.9947 C.ar    1  UNL1        0.0126
     13 C         141.2590  141.8767  168.3350 C.ar    1  UNL1        0.0498
     14 S         140.4306  142.9675  168.9465 S.2     1  UNL1       -0.0520
     15 H         138.9997  142.9466  172.1839 H       1  UNL1        0.1442
     16 H         138.8644  144.2076  171.0440 H       1  UNL1        0.1442
     17 C         144.0914  138.9260  163.2965 C.3     1  UNL1        0.1166
     18 C         143.2564  138.7802  162.0590 C.ar    1  UNL1       -0.0017
     19 C         143.8921  138.9062  160.7062 C.ar    1  UNL1       -0.0017
     20 C         143.0571  138.7604  159.4687 C.ar    1  UNL1        0.0120
     21 C         141.5864  138.4887  159.5839 C.ar    1  UNL1        0.0682
     22 CL        140.7514  138.3429  158.3463 Cl      1  UNL1       -0.0814
     23 C         140.9507  138.3626  160.9367 C.ar    1  UNL1        0.0679
     24 CL        139.4801  138.0909  161.0519 Cl      1  UNL1       -0.0814
     25 C         141.7858  138.5084  162.1743 C.ar    1  UNL1        0.0096
@<TRIPOS>BOND
     1     5     6    1
     2     6     7   ar
     3     7     8   ar
     4     8     9   ar
     5     9    10   ar
     6    10    11   ar
     7    11     1    1
     8     1     2    2
     9     1     3   am
    10     3    17    1
    11    17    18    1
    12    18    19   ar
    13    19    20   ar
    14    20    21   ar
    15    21    22    1
    16    21    23   ar
    17    23    24    1
    18    23    25   ar
    19    11    12   ar
    20    12    13   ar
    21    13    14   ar
    22    14     6   ar
    23    13     8   ar
    24    25    18   ar
    25     5    15    1
    26     5    16    1
    27     3     4    1
@<TRIPOS>MOLECULE
*****
 25 27 0 0 0
SMALL
GASTEIGER

@<TRIPOS>ATOM
      1 C         138.6451  139.2654  164.4868 C.2     1  UNL1        0.2461
      2 O         138.3249  140.4148  163.5777 O.2     1  UNL1       -0.2701
      3 N         138.9300  137.9102  163.9105 N.am    1  UNL1       -0.2969
      4 H         139.1401  137.1558  164.5072 H       1  UNL1        0.1501
      5 N         140.6260  142.0662  171.5476 N.pl3   1  UNL1       -0.3375
      6 C         140.0650  141.3646  170.3464 C.ar    1  UNL1        0.1567
      7 N         139.0062  140.3022  170.3604 N.ar    1  UNL1       -0.2245
      8 C         138.7510  139.8831  168.9429 C.ar    1  UNL1        0.0892
      9 C         137.8146  138.8738  168.3478 C.ar    1  UNL1        0.0198
     10 C         137.7793  138.6679  166.8624 C.ar    1  UNL1        0.0061
     11 C         138.6804  139.4713  165.9722 C.ar    1  UNL1        0.0540
     12 C         139.6169  140.4807  166.5674 C.ar    1  UNL1        0.0126
     13 C         139.6522  140.6866  168.0527 C.ar    1  UNL1        0.0498
     14 S         140.4642  141.6022  168.9201 S.2     1  UNL1       -0.0520
     15 H         140.2979  141.8398  172.4478 H       1  UNL1        0.1442
     16 H         141.3223  142.7532  171.4358 H       1  UNL1        0.1442
     17 C         138.8946  137.7042  162.4251 C.3     1  UNL1        0.1166
     18 C         140.0486  138.1525  161.5781 C.ar    1  UNL1       -0.0017
     19 C         139.8038  139.0006  160.3653 C.ar    1  UNL1       -0.0017
     20 C         140.9578  139.4489  159.5183 C.ar    1  UNL1        0.0120
     21 C         142.3565  139.0492  159.8842 C.ar    1  UNL1        0.0682
     22 CL        143.5105  139.4975  159.0372 Cl      1  UNL1       -0.0814
     23 C         142.6013  138.2011  161.0970 C.ar    1  UNL1        0.0679
     24 CL        143.9999  137.8014  161.4628 Cl      1  UNL1       -0.0814
     25 C         141.4472  137.7528  161.9440 C.ar    1  UNL1        0.0096
@<TRIPOS>BOND
     1     5     6    1
     2     6     7   ar
     3     7     8   ar
     4     8     9   ar
     5     9    10   ar
     6    10    11   ar
     7    11     1    1
     8     1     2    2
     9     1     3   am
    10     3    17    1
    11    17    18    1
    12    18    19   ar
    13    19    20   ar
    14    20    21   ar
    15    21    22    1
    16    21    23   ar
    17    23    24    1
    18    23    25   ar
    19    11    12   ar
    20    12    13   ar
    21    13    14   ar
    22    14     6   ar
    23    13     8   ar
    24    25    18   ar
    25     5    15    1
    26     5    16    1
    27     3     4    1
@<TRIPOS>MOLECULE
*****
 25 27 0 0 0
SMALL
GASTEIGER

@<TRIPOS>ATOM
      1 C         140.1281  143.6559  164.7328 C.2     1  UNL1        0.2461
      2 O         138.9021  144.1660  164.0352 O.2     1  UNL1       -0.2701
      3 N         141.4799  144.1873  164.3584 N.am    1  UNL1       -0.2969
      4 H         142.2845  143.8526  164.8163 H       1  UNL1        0.1501
      5 N         140.4675  140.1408  171.7437 N.pl3   1  UNL1       -0.3375
      6 C         140.2939  140.5614  170.3144 C.ar    1  UNL1        0.1567
      7 N         139.7450  139.7127  169.2060 N.ar    1  UNL1       -0.2245
      8 C         139.7506  140.5313  167.9491 C.ar    1  UNL1        0.0892
      9 C         139.3240  140.2182  166.5455 C.ar    1  UNL1        0.0198
     10 C         139.4499  141.2597  165.4735 C.ar    1  UNL1        0.0061
     11 C         140.0022  142.6144  165.8050 C.ar    1  UNL1        0.0540
     12 C         140.4288  142.9274  167.2085 C.ar    1  UNL1        0.0126
     13 C         140.3029  141.8859  168.2806 C.ar    1  UNL1        0.0498
     14 S         140.6387  141.9045  169.7424 S.2     1  UNL1       -0.0520
     15 H         140.2105  139.2328  172.0243 H       1  UNL1        0.1442
     16 H         140.8384  140.7728  172.4012 H       1  UNL1        0.1442
     17 C         141.6057  145.2289  163.2863 C.3     1  UNL1        0.1166
     18 C         141.6002  144.8232  161.8422 C.ar    1  UNL1       -0.0017
     19 C         140.5983  145.4206  160.8992 C.ar    1  UNL1       -0.0017
     20 C         140.5928  145.0150  159.4551 C.ar    1  UNL1        0.0120
     21 C         141.5892  144.0119  158.9540 C.ar    1  UNL1        0.0682
     22 CL        141.5837  143.6062  157.5099 Cl      1  UNL1       -0.0814
     23 C         142.5911  143.4145  159.8971 C.ar    1  UNL1        0.0679
     24 CL        143.5875  142.4114  159.3960 Cl      1  UNL1       -0.0814
     25 C         142.5966  143.8202  161.3412 C.ar    1  UNL1        0.0096
@<TRIPOS>BOND
     1     5     6    1
     2     6     7   ar
     3     7     8   ar
     4     8     9   ar
     5     9    10   ar
     6    10    11   ar
     7    11     1    1
     8     1     2    2
     9     1     3   am
    10     3    17    1
    11    17    18    1
    12    18    19   ar
    13    19    20   ar
    14    20    21   ar
    15    21    22    1
    16    21    23   ar
    17    23    24    1
    18    23    25   ar
    19    11    12   ar
    20    12    13   ar
    21    13    14   ar
    22    14     6   ar
    23    13     8   ar
    24    25    18   ar
    25     5    15    1
    26     5    16    1
    27     3     4    1
@<TRIPOS>MOLECULE
*****
 25 27 0 0 0
SMALL
GASTEIGER

@<TRIPOS>ATOM
      1 C         142.5913  138.7120  164.8258 C.2     1  UNL1        0.2461
      2 O         141.4387  137.7903  165.0939 O.2     1  UNL1       -0.2701
      3 N         143.3402  139.3289  165.9697 N.am    1  UNL1       -0.2969
      4 H         144.0966  139.9339  165.7937 H       1  UNL1        0.1501
      5 N         142.8842  138.5226  156.9835 N.pl3   1  UNL1       -0.3375
      6 C         143.0353  138.7574  158.4573 C.ar    1  UNL1        0.1567
      7 N         143.9890  139.7177  159.1039 N.ar    1  UNL1       -0.2245
      8 C         143.8024  139.6269  160.5895 C.ar    1  UNL1        0.0892
      9 C         144.4678  140.3384  161.7300 C.ar    1  UNL1        0.0198
     10 C         144.0641  140.0335  163.1421 C.ar    1  UNL1        0.0061
     11 C         142.9950  139.0170  163.4136 C.ar    1  UNL1        0.0540
     12 C         142.3296  138.3054  162.2731 C.ar    1  UNL1        0.0126
     13 C         142.7333  138.6104  160.8610 C.ar    1  UNL1        0.0498
     14 S         142.2592  138.0730  159.5433 S.2     1  UNL1       -0.0520
     15 H         143.4423  139.0233  156.3455 H       1  UNL1        0.1442
     16 H         142.2269  137.8678  156.6542 H       1  UNL1        0.1442
     17 C         142.9365  139.0239  167.3819 C.3     1  UNL1        0.1166
     18 C         142.1463  140.0267  168.1692 C.ar    1  UNL1       -0.0017
     19 C         140.6486  139.9474  168.1959 C.ar    1  UNL1       -0.0017
     20 C         139.8584  140.9502  168.9833 C.ar    1  UNL1        0.0120
     21 C         140.5658  142.0324  169.7439 C.ar    1  UNL1        0.0682
     22 CL        139.7756  143.0352  170.5312 Cl      1  UNL1       -0.0814
     23 C         142.0635  142.1117  169.7172 C.ar    1  UNL1        0.0679
     24 CL        142.7709  143.1938  170.4777 Cl      1  UNL1       -0.0814
     25 C         142.8537  141.1088  168.9298 C.ar    1  UNL1        0.0096
@<TRIPOS>BOND
     1     5     6    1
     2     6     7   ar
     3     7     8   ar
     4     8     9   ar
     5     9    10   ar
     6    10    11   ar
     7    11     1    1
     8     1     2    2
     9     1     3   am
    10     3    17    1
    11    17    18    1
    12    18    19   ar
    13    19    20   ar
    14    20    21   ar
    15    21    22    1
    16    21    23   ar
    17    23    24    1
    18    23    25   ar
    19    11    12   ar
    20    12    13   ar
    21    13    14   ar
    22    14     6   ar
    23    13     8   ar
    24    25    18   ar
    25     5    15    1
    26     5    16    1
    27     3     4    1
