@<TRIPOS>MOLECULE
*****
 31 34 0 0 0
SMALL
GASTEIGER

@<TRIPOS>ATOM
      1 N         143.4598  142.3824  164.0132 N.3     1  UNL1       -0.2727
      2 C         142.2470  141.5523  163.7133 C.3     1  UNL1        0.0725
      3 C         141.4169  141.0044  164.8361 C.3     1  UNL1        0.0232
      4 C         141.7996  141.2865  166.2588 C.3     1  UNL1        0.0444
      5 C         143.0124  142.1166  166.5586 C.3     1  UNL1        0.0232
      6 C         143.8425  142.6646  165.4359 C.3     1  UNL1        0.0725
      7 C         142.0569  141.4840  167.7233 C.3     1  UNL1        0.1212
      8 N         140.9827  140.7644  168.4838 N.pl3   1  UNL1       -0.1777
      9 C         140.0615  140.1222  167.4893 C.ar    1  UNL1        0.1461
     10 N         138.8282  139.2853  167.6582 N.ar    1  UNL1       -0.2280
     11 C         138.0998  138.7711  166.4521 C.ar    1  UNL1        0.1003
     12 C         138.6046  139.0938  165.0768 C.ar    1  UNL1        0.0205
     13 C         139.8379  139.9307  164.9079 C.ar    1  UNL1        0.0002
     14 C         140.5664  140.4449  166.1142 C.ar    1  UNL1        0.0120
     15 S         140.8526  140.6986  169.9767 S.O2    1  UNL1        0.0599
     16 C         140.7224  140.6327  171.4696 C.3     1  UNL1        0.1999
     17 O         141.7375  139.4877  170.0005 O.2     1  UNL1       -0.1542
     18 O         139.9676  141.9095  169.9529 O.2     1  UNL1       -0.1542
     19 C         144.2900  142.9304  162.8904 C.3     1  UNL1        0.0721
     20 C         140.4558  145.2861  159.3422 C.2     1  UNL1        0.4049
     21 O         139.5874  146.2581  160.0848 O.2     1  UNL1       -0.2262
     22 N         141.5384  144.5423  160.0666 N.am    1  UNL1       -0.2460
     23 C         141.7525  144.7705  161.5336 C.3     1  UNL1        0.0968
     24 C         142.8352  144.0266  162.2581 C.3     1  UNL1        0.0230
     25 C         143.7035  143.0548  161.5155 C.3     1  UNL1        0.0180
     26 C         144.7756  142.0397  161.2504 C.3     1  UNL1        0.0015
     27 C         143.4893  142.8267  160.0485 C.3     1  UNL1        0.0230
     28 C         142.4067  143.5705  159.3241 C.3     1  UNL1        0.0968
     29 O         140.2416  145.0581  157.8752 O.3     1  UNL1       -0.4345
     30 C         139.2314  147.0408  156.5342 C.3     1  UNL1        0.0513
     31 C         140.4101  146.1916  156.9074 C.3     1  UNL1        0.2102
@<TRIPOS>BOND
     1    30    31    1
     2    31    29    1
     3    29    20    1
     4    20    21    2
     5    20    22   am
     6    22    23    1
     7    23    24    1
     8    24    25    1
     9    25    26    1
    10    25    19    1
    11    19     1    1
    12     1     2    1
    13     2     3    1
    14     3     4    1
    15     4     5    1
    16     5     6    1
    17     4     7    1
    18     7     8    1
    19     8    15    1
    20    15    16    1
    21    15    17    2
    22    15    18    2
    23     8     9    1
    24     9    10   ar
    25    10    11   ar
    26    11    12   ar
    27    12    13   ar
    28    13    14   ar
    29    25    27    1
    30    27    28    1
    31    28    22    1
    32     6     1    1
    33    14     9   ar
    34    14     4    1
@<TRIPOS>MOLECULE
*****
 31 34 0 0 0
SMALL
GASTEIGER

@<TRIPOS>ATOM
      1 N         140.5300  139.6974  163.5541 N.3     1  UNL1       -0.2727
      2 C         140.4324  141.1511  163.9107 C.3     1  UNL1        0.0725
      3 C         140.2636  142.1784  162.8308 C.3     1  UNL1        0.0232
      4 C         140.1923  141.7520  161.3945 C.3     1  UNL1        0.0444
      5 C         140.2899  140.2983  161.0379 C.3     1  UNL1        0.0232
      6 C         140.4587  139.2710  162.1178 C.3     1  UNL1        0.0725
      7 C         140.1054  141.4777  159.9223 C.3     1  UNL1        0.1212
      8 N         139.9401  142.7903  159.2152 N.pl3   1  UNL1       -0.1777
      9 C         139.9249  143.8758  160.2504 C.ar    1  UNL1        0.1461
     10 N         139.7893  145.3656  160.1406 N.ar    1  UNL1       -0.2280
     11 C         139.8095  146.2137  161.3775 C.ar    1  UNL1        0.1003
     12 C         139.9654  145.5721  162.7244 C.ar    1  UNL1        0.0205
     13 C         140.1010  144.0823  162.8342 C.ar    1  UNL1        0.0002
     14 C         140.0808  143.2341  161.5972 C.ar    1  UNL1        0.0120
     15 S         139.8125  142.9834  157.7332 S.O2    1  UNL1        0.0599
     16 C         139.6848  143.1765  156.2511 C.3     1  UNL1        0.1999
     17 O         138.3223  142.8536  157.8446 O.2     1  UNL1       -0.1542
     18 O         141.3027  143.1132  157.6217 O.2     1  UNL1       -0.1542
     19 C         140.6988  138.6699  164.6340 C.3     1  UNL1        0.0721
     20 C         140.0869  140.5719  170.0051 C.2     1  UNL1        0.4049
     21 O         138.6393  140.8248  170.3063 O.2     1  UNL1       -0.2262
     22 N         140.4945  140.0668  168.6528 N.am    1  UNL1       -0.2460
     23 C         139.4546  139.8146  167.6017 C.3     1  UNL1        0.0968
     24 C         139.8622  139.3095  166.2493 C.3     1  UNL1        0.0230
     25 C         141.3097  139.0566  165.9482 C.3     1  UNL1        0.0180
     26 C         142.5451  138.6694  165.1906 C.3     1  UNL1        0.0015
     27 C         142.3497  139.3088  166.9994 C.3     1  UNL1        0.0230
     28 C         141.9420  139.8139  168.3517 C.3     1  UNL1        0.0968
     29 O         141.1268  140.8241  171.0562 O.3     1  UNL1       -0.4345
     30 C         141.5728  143.1791  170.0536 C.3     1  UNL1        0.0513
     31 C         141.8973  142.1110  171.0555 C.3     1  UNL1        0.2102
@<TRIPOS>BOND
     1    30    31    1
     2    31    29    1
     3    29    20    1
     4    20    21    2
     5    20    22   am
     6    22    23    1
     7    23    24    1
     8    24    25    1
     9    25    26    1
    10    25    19    1
    11    19     1    1
    12     1     2    1
    13     2     3    1
    14     3     4    1
    15     4     5    1
    16     5     6    1
    17     4     7    1
    18     7     8    1
    19     8    15    1
    20    15    16    1
    21    15    17    2
    22    15    18    2
    23     8     9    1
    24     9    10   ar
    25    10    11   ar
    26    11    12   ar
    27    12    13   ar
    28    13    14   ar
    29    25    27    1
    30    27    28    1
    31    28    22    1
    32     6     1    1
    33    14     9   ar
    34    14     4    1
@<TRIPOS>MOLECULE
*****
 31 34 0 0 0
SMALL
GASTEIGER

@<TRIPOS>ATOM
      1 N         143.5185  140.3440  163.5985 N.3     1  UNL1       -0.2727
      2 C         142.2124  139.6065  163.6034 C.3     1  UNL1        0.0725
      3 C         141.3460  139.6237  164.8277 C.3     1  UNL1        0.0232
      4 C         141.7857  140.3785  166.0471 C.3     1  UNL1        0.0444
      5 C         143.0918  141.1160  166.0423 C.3     1  UNL1        0.0232
      6 C         143.9582  141.0987  164.8180 C.3     1  UNL1        0.0725
      7 C         142.0919  141.0857  167.3341 C.3     1  UNL1        0.1212
      8 N         140.9563  140.8358  168.2819 N.pl3   1  UNL1       -0.1777
      9 C         139.9483  139.9742  167.5806 C.ar    1  UNL1        0.1461
     10 N         138.6300  139.4105  168.0212 N.ar    1  UNL1       -0.2280
     11 C         137.8242  138.5642  167.0809 C.ar    1  UNL1        0.1003
     12 C         138.3368  138.2815  165.6997 C.ar    1  UNL1        0.0205
     13 C         139.6551  138.8452  165.2591 C.ar    1  UNL1        0.0002
     14 C         140.4609  139.6916  166.1996 C.ar    1  UNL1        0.0120
     15 S         140.8478  141.3562  169.6845 S.O2    1  UNL1        0.0599
     16 C         140.7393  141.8765  171.0871 C.3     1  UNL1        0.1999
     17 O         140.3463  142.6685  169.1589 O.2     1  UNL1       -0.1542
     18 O         141.3494  140.0438  170.2101 O.2     1  UNL1       -0.1542
     19 C         144.3850  140.3267  162.3742 C.3     1  UNL1        0.0721
     20 C         142.0589  144.0416  158.6824 C.2     1  UNL1        0.4049
     21 O         141.9811  145.4076  159.2975 O.2     1  UNL1       -0.2262
     22 N         142.6351  142.8986  159.4644 N.am    1  UNL1       -0.2460
     23 C         143.1335  143.1216  160.8614 C.3     1  UNL1        0.0968
     24 C         143.7098  141.9785  161.6435 C.3     1  UNL1        0.0230
     25 C         143.7875  140.6127  161.0284 C.3     1  UNL1        0.0180
     26 C         144.0728  139.1475  160.8807 C.3     1  UNL1        0.0015
     27 C         143.2891  140.3898  159.6313 C.3     1  UNL1        0.0230
     28 C         142.7128  141.5328  158.8493 C.3     1  UNL1        0.0968
     29 O         141.5604  143.8188  157.2853 O.3     1  UNL1       -0.4345
     30 C         139.1435  143.1104  157.9232 C.3     1  UNL1        0.0513
     31 C         140.0870  143.8281  157.0042 C.3     1  UNL1        0.2102
@<TRIPOS>BOND
     1    30    31    1
     2    31    29    1
     3    29    20    1
     4    20    21    2
     5    20    22   am
     6    22    23    1
     7    23    24    1
     8    24    25    1
     9    25    26    1
    10    25    19    1
    11    19     1    1
    12     1     2    1
    13     2     3    1
    14     3     4    1
    15     4     5    1
    16     5     6    1
    17     4     7    1
    18     7     8    1
    19     8    15    1
    20    15    16    1
    21    15    17    2
    22    15    18    2
    23     8     9    1
    24     9    10   ar
    25    10    11   ar
    26    11    12   ar
    27    12    13   ar
    28    13    14   ar
    29    25    27    1
    30    27    28    1
    31    28    22    1
    32     6     1    1
    33    14     9   ar
    34    14     4    1
@<TRIPOS>MOLECULE
*****
 31 34 0 0 0
SMALL
GASTEIGER

@<TRIPOS>ATOM
      1 N         139.9540  143.7194  163.9490 N.3     1  UNL1       -0.2727
      2 C         140.8919  142.5874  163.6512 C.3     1  UNL1        0.0725
      3 C         141.3838  141.7088  164.7629 C.3     1  UNL1        0.0232
      4 C         140.9378  141.9621  166.1724 C.3     1  UNL1        0.0444
      5 C         139.9999  143.0942  166.4703 C.3     1  UNL1        0.0232
      6 C         139.5080  143.9728  165.3586 C.3     1  UNL1        0.0725
      7 C         140.5805  142.0928  167.6234 C.3     1  UNL1        0.1212
      8 N         141.2953  141.0099  168.3761 N.pl3   1  UNL1       -0.1777
      9 C         142.0944  140.2100  167.3903 C.ar    1  UNL1        0.1461
     10 N         142.9946  139.0218  167.5568 N.ar    1  UNL1       -0.2280
     11 C         143.6739  138.4221  166.3616 C.ar    1  UNL1        0.1003
     12 C         143.4530  139.0106  164.9995 C.ar    1  UNL1        0.0205
     13 C         142.5527  140.1988  164.8330 C.ar    1  UNL1        0.0002
     14 C         141.8734  140.7985  166.0284 C.ar    1  UNL1        0.0120
     15 S         141.2236  140.7691  169.8550 S.O2    1  UNL1        0.0599
     16 C         141.1520  140.5284  171.3338 C.3     1  UNL1        0.1999
     17 O         140.1647  139.7300  169.6345 O.2     1  UNL1       -0.1542
     18 O         142.2827  141.8084  170.0754 O.2     1  UNL1       -0.1542
     19 C         139.4620  144.5982  162.8373 C.3     1  UNL1        0.0721
     20 C         138.3165  141.1352  158.4173 C.2     1  UNL1        0.4049
     21 O         137.3017  140.1038  158.8131 O.2     1  UNL1       -0.2262
     22 N         138.7755  142.1573  159.4146 N.am    1  UNL1       -0.2460
     23 C         138.2196  142.1480  160.8077 C.3     1  UNL1        0.0968
     24 C         138.6786  143.1701  161.8052 C.3     1  UNL1        0.0230
     25 C         139.6933  144.2014  161.4093 C.3     1  UNL1        0.0180
     26 C         140.6278  145.3705  161.5094 C.3     1  UNL1        0.0015
     27 C         140.2492  144.2106  160.0161 C.3     1  UNL1        0.0230
     28 C         139.7902  143.1885  159.0188 C.3     1  UNL1        0.0968
     29 O         138.8723  141.1444  157.0241 O.3     1  UNL1       -0.4345
     30 C         137.2364  142.9143  156.0540 C.3     1  UNL1        0.0513
     31 C         138.0392  141.6582  155.8875 C.3     1  UNL1        0.2102
@<TRIPOS>BOND
     1    30    31    1
     2    31    29    1
     3    29    20    1
     4    20    21    2
     5    20    22   am
     6    22    23    1
     7    23    24    1
     8    24    25    1
     9    25    26    1
    10    25    19    1
    11    19     1    1
    12     1     2    1
    13     2     3    1
    14     3     4    1
    15     4     5    1
    16     5     6    1
    17     4     7    1
    18     7     8    1
    19     8    15    1
    20    15    16    1
    21    15    17    2
    22    15    18    2
    23     8     9    1
    24     9    10   ar
    25    10    11   ar
    26    11    12   ar
    27    12    13   ar
    28    13    14   ar
    29    25    27    1
    30    27    28    1
    31    28    22    1
    32     6     1    1
    33    14     9   ar
    34    14     4    1
@<TRIPOS>MOLECULE
*****
 31 34 0 0 0
SMALL
GASTEIGER

@<TRIPOS>ATOM
      1 N         139.6011  143.3267  163.9364 N.3     1  UNL1       -0.2727
      2 C         140.4758  142.1540  163.6052 C.3     1  UNL1        0.0725
      3 C         141.1454  141.3839  164.7045 C.3     1  UNL1        0.0232
      4 C         140.9404  141.7864  166.1349 C.3     1  UNL1        0.0444
      5 C         140.0656  142.9590  166.4660 C.3     1  UNL1        0.0232
      6 C         139.3960  143.7292  165.3667 C.3     1  UNL1        0.0725
      7 C         140.8296  142.0694  167.6038 C.3     1  UNL1        0.1212
      8 N         141.6592  141.0558  168.3350 N.pl3   1  UNL1       -0.1777
      9 C         142.2826  140.1464  167.3180 C.ar    1  UNL1        0.1461
     10 N         143.1974  138.9655  167.4543 N.ar    1  UNL1       -0.2280
     11 C         143.6680  138.2361  166.2311 C.ar    1  UNL1        0.1003
     12 C         143.2237  138.6876  164.8713 C.ar    1  UNL1        0.0205
     13 C         142.3089  139.8684  164.7349 C.ar    1  UNL1        0.0002
     14 C         141.8384  140.5979  165.9582 C.ar    1  UNL1        0.0120
     15 S         141.8345  140.9673  169.8221 S.O2    1  UNL1        0.0599
     16 C         142.0099  140.8788  171.3091 C.3     1  UNL1        0.1999
     17 O         140.8493  139.8373  169.8709 O.2     1  UNL1       -0.1542
     18 O         142.8198  142.0974  169.7731 O.2     1  UNL1       -0.1542
     19 C         138.9314  144.0969  162.8371 C.3     1  UNL1        0.0721
     20 C         141.5586  144.9775  157.8208 C.2     1  UNL1        0.4049
     21 O         142.4881  146.1509  157.9186 O.2     1  UNL1       -0.2262
     22 N         140.7568  144.5542  159.0157 N.am    1  UNL1       -0.2460
     23 C         140.8845  145.3041  160.3085 C.3     1  UNL1        0.0968
     24 C         140.0827  144.8807  161.5035 C.3     1  UNL1        0.0230
     25 C         139.1532  143.7075  161.4056 C.3     1  UNL1        0.0180
     26 C         138.1467  142.6695  161.8049 C.3     1  UNL1        0.0015
     27 C         139.0255  142.9576  160.1128 C.3     1  UNL1        0.0230
     28 C         139.8273  143.3810  158.9179 C.3     1  UNL1        0.0968
     29 O         141.4309  144.2277  156.5280 O.3     1  UNL1       -0.4345
     30 C         139.1726  145.1777  155.6636 C.3     1  UNL1        0.0513
     31 C         140.5999  144.7905  155.4133 C.3     1  UNL1        0.2102
@<TRIPOS>BOND
     1    30    31    1
     2    31    29    1
     3    29    20    1
     4    20    21    2
     5    20    22   am
     6    22    23    1
     7    23    24    1
     8    24    25    1
     9    25    26    1
    10    25    19    1
    11    19     1    1
    12     1     2    1
    13     2     3    1
    14     3     4    1
    15     4     5    1
    16     5     6    1
    17     4     7    1
    18     7     8    1
    19     8    15    1
    20    15    16    1
    21    15    17    2
    22    15    18    2
    23     8     9    1
    24     9    10   ar
    25    10    11   ar
    26    11    12   ar
    27    12    13   ar
    28    13    14   ar
    29    25    27    1
    30    27    28    1
    31    28    22    1
    32     6     1    1
    33    14     9   ar
    34    14     4    1
@<TRIPOS>MOLECULE
*****
 31 34 0 0 0
SMALL
GASTEIGER

@<TRIPOS>ATOM
      1 N         139.1533  142.1677  163.4120 N.3     1  UNL1       -0.2727
      2 C         140.2589  141.3245  162.8495 C.3     1  UNL1        0.0725
      3 C         140.9165  141.7136  161.5587 C.3     1  UNL1        0.0232
      4 C         140.4684  142.9460  160.8304 C.3     1  UNL1        0.0444
      5 C         139.3627  143.7893  161.3929 C.3     1  UNL1        0.0232
      6 C         138.7052  143.4001  162.6837 C.3     1  UNL1        0.0725
      7 C         140.1291  144.1443  159.9942 C.3     1  UNL1        0.1212
      8 N         141.0317  144.1441  158.7961 N.pl3   1  UNL1       -0.1777
      9 C         141.9288  142.9456  158.8919 C.ar    1  UNL1        0.1461
     10 N         143.0178  142.4329  157.9967 N.ar    1  UNL1       -0.2280
     11 C         143.7585  141.1799  158.3586 C.ar    1  UNL1        0.1003
     12 C         143.4103  140.4394  159.6159 C.ar    1  UNL1        0.0205
     13 C         142.3214  140.9521  160.5111 C.ar    1  UNL1        0.0002
     14 C         141.5807  142.2052  160.1491 C.ar    1  UNL1        0.0120
     15 S         141.0364  145.1632  157.6956 S.O2    1  UNL1        0.0599
     16 C         141.0411  146.1824  156.5950 C.3     1  UNL1        0.1999
     17 O         142.2546  145.8028  158.2931 O.2     1  UNL1       -0.1542
     18 O         139.8182  144.5236  157.0981 O.2     1  UNL1       -0.1542
     19 C         138.4957  141.7786  164.7028 C.3     1  UNL1        0.0721
     20 C         142.7785  141.4093  168.4926 C.2     1  UNL1        0.4049
     21 O         143.5510  142.6945  168.5323 O.2     1  UNL1       -0.2262
     22 N         141.6047  141.2679  167.5695 N.am    1  UNL1       -0.2460
     23 C         141.2034  142.4118  166.6860 C.3     1  UNL1        0.0968
     24 C         140.0296  142.2705  165.7628 C.3     1  UNL1        0.0230
     25 C         139.2571  140.9854  165.7231 C.3     1  UNL1        0.0180
     26 C         138.2201  139.9757  165.3291 C.3     1  UNL1        0.0015
     27 C         139.6584  139.8415  166.6066 C.3     1  UNL1        0.0230
     28 C         140.8322  139.9828  167.5298 C.3     1  UNL1        0.0968
     29 O         143.1798  140.2654  169.3761 O.3     1  UNL1       -0.4345
     30 C         141.4523  141.0183  171.1647 C.3     1  UNL1        0.0513
     31 C         142.5956  140.1395  170.7518 C.3     1  UNL1        0.2102
@<TRIPOS>BOND
     1    30    31    1
     2    31    29    1
     3    29    20    1
     4    20    21    2
     5    20    22   am
     6    22    23    1
     7    23    24    1
     8    24    25    1
     9    25    26    1
    10    25    19    1
    11    19     1    1
    12     1     2    1
    13     2     3    1
    14     3     4    1
    15     4     5    1
    16     5     6    1
    17     4     7    1
    18     7     8    1
    19     8    15    1
    20    15    16    1
    21    15    17    2
    22    15    18    2
    23     8     9    1
    24     9    10   ar
    25    10    11   ar
    26    11    12   ar
    27    12    13   ar
    28    13    14   ar
    29    25    27    1
    30    27    28    1
    31    28    22    1
    32     6     1    1
    33    14     9   ar
    34    14     4    1
@<TRIPOS>MOLECULE
*****
 31 34 0 0 0
SMALL
GASTEIGER

@<TRIPOS>ATOM
      1 N         139.4640  138.2763  162.8681 N.3     1  UNL1       -0.2727
      2 C         140.5574  138.0194  161.8739 C.3     1  UNL1        0.0725
      3 C         140.4332  138.5378  160.4718 C.3     1  UNL1        0.0232
      4 C         139.2155  139.3130  160.0639 C.3     1  UNL1        0.0444
      5 C         138.1221  139.5698  161.0581 C.3     1  UNL1        0.0232
      6 C         138.2463  139.0515  162.4602 C.3     1  UNL1        0.0725
      7 C         138.0630  140.0997  159.5137 C.3     1  UNL1        0.1212
      8 N         138.3572  140.4086  158.0755 N.pl3   1  UNL1       -0.1777
      9 C         139.6915  139.8128  157.7370 C.ar    1  UNL1        0.1461
     10 N         140.4920  139.7993  156.4686 N.ar    1  UNL1       -0.2280
     11 C         141.8229  139.1087  156.4289 C.ar    1  UNL1        0.1003
     12 C         142.3535  138.4315  157.6578 C.ar    1  UNL1        0.0205
     13 C         141.5530  138.4450  158.9263 C.ar    1  UNL1        0.0002
     14 C         140.2220  139.1356  158.9659 C.ar    1  UNL1        0.0120
     15 S         137.4724  141.1782  157.1402 S.O2    1  UNL1        0.0599
     16 C         136.5876  141.9478  156.2048 C.3     1  UNL1        0.1999
     17 O         137.1269  139.9077  156.4216 O.2     1  UNL1       -0.1542
     18 O         137.8179  142.4488  157.8588 O.2     1  UNL1       -0.1542
     19 C         139.5882  137.7579  164.2702 C.3     1  UNL1        0.0721
     20 C         142.0347  142.0645  167.1528 C.2     1  UNL1        0.4049
     21 O         143.3044  142.4891  166.4762 O.2     1  UNL1       -0.2262
     22 N         141.2155  140.9473  166.5774 N.am    1  UNL1       -0.2460
     23 C         141.6661  140.2548  165.3255 C.3     1  UNL1        0.0968
     24 C         140.8469  139.1377  164.7501 C.3     1  UNL1        0.0230
     25 C         139.5773  138.7131  165.4267 C.3     1  UNL1        0.0180
     26 C         138.3114  137.9568  165.7016 C.3     1  UNL1        0.0015
     27 C         139.1268  139.4057  166.6787 C.3     1  UNL1        0.0230
     28 C         139.9460  140.5228  167.2540 C.3     1  UNL1        0.0968
     29 O         141.5843  142.7570  168.4047 O.3     1  UNL1       -0.4345
     30 C         143.3173  141.4782  169.8576 C.3     1  UNL1        0.0513
     31 C         142.4028  142.6500  169.6571 C.3     1  UNL1        0.2102
@<TRIPOS>BOND
     1    30    31    1
     2    31    29    1
     3    29    20    1
     4    20    21    2
     5    20    22   am
     6    22    23    1
     7    23    24    1
     8    24    25    1
     9    25    26    1
    10    25    19    1
    11    19     1    1
    12     1     2    1
    13     2     3    1
    14     3     4    1
    15     4     5    1
    16     5     6    1
    17     4     7    1
    18     7     8    1
    19     8    15    1
    20    15    16    1
    21    15    17    2
    22    15    18    2
    23     8     9    1
    24     9    10   ar
    25    10    11   ar
    26    11    12   ar
    27    12    13   ar
    28    13    14   ar
    29    25    27    1
    30    27    28    1
    31    28    22    1
    32     6     1    1
    33    14     9   ar
    34    14     4    1
@<TRIPOS>MOLECULE
*****
 31 34 0 0 0
SMALL
GASTEIGER

@<TRIPOS>ATOM
      1 N         141.8518  137.2760  156.6604 N.3     1  UNL1       -0.2727
      2 C         142.8738  136.4075  157.3322 C.3     1  UNL1        0.0725
      3 C         143.0122  134.9678  156.9348 C.3     1  UNL1        0.0232
      4 C         142.1286  134.3966  155.8656 C.3     1  UNL1        0.0444
      5 C         141.1067  135.2651  155.1939 C.3     1  UNL1        0.0232
      6 C         140.9683  136.7048  155.5913 C.3     1  UNL1        0.0725
      7 C         141.3199  133.6891  154.8189 C.3     1  UNL1        0.1212
      8 N         141.7916  132.2667  154.7515 N.pl3   1  UNL1       -0.1777
      9 C         142.8918  132.0951  155.7567 C.ar    1  UNL1        0.1461
     10 N         143.7308  130.9103  156.1339 N.ar    1  UNL1       -0.2280
     11 C         144.7781  131.0418  157.1996 C.ar    1  UNL1        0.1003
     12 C         144.9864  132.3581  157.8882 C.ar    1  UNL1        0.0205
     13 C         144.1474  133.5428  157.5109 C.ar    1  UNL1        0.0002
     14 C         143.1001  133.4114  156.4452 C.ar    1  UNL1        0.0120
     15 S         141.2569  131.2028  153.8393 S.O2    1  UNL1        0.0599
     16 C         140.7223  130.1389  152.9270 C.3     1  UNL1        0.1999
     17 O         140.1257  130.9540  154.7924 O.2     1  UNL1       -0.1542
     18 O         142.3882  131.4517  152.8861 O.2     1  UNL1       -0.1542
     19 C         141.7134  138.7158  157.0578 C.3     1  UNL1        0.0721
     20 C         139.3925  138.9440  162.2926 C.2     1  UNL1        0.4049
     21 O         138.0231  138.3317  162.2823 O.2     1  UNL1       -0.2262
     22 N         140.1992  138.9987  161.0291 N.am    1  UNL1       -0.2460
     23 C         139.6365  138.4411  159.7554 C.3     1  UNL1        0.0968
     24 C         140.4432  138.4958  158.4919 C.3     1  UNL1        0.0230
     25 C         141.8124  139.1081  158.5022 C.3     1  UNL1        0.0180
     26 C         143.1474  139.5842  158.0109 C.3     1  UNL1        0.0015
     27 C         142.3751  139.6657  159.7760 C.3     1  UNL1        0.0230
     28 C         141.5684  139.6110  161.0395 C.3     1  UNL1        0.0968
     29 O         139.9551  139.5015  163.5663 O.3     1  UNL1       -0.4345
     30 C         141.0799  137.2229  164.1074 C.3     1  UNL1        0.0513
     31 C         140.6578  138.5973  164.5351 C.3     1  UNL1        0.2102
@<TRIPOS>BOND
     1    30    31    1
     2    31    29    1
     3    29    20    1
     4    20    21    2
     5    20    22   am
     6    22    23    1
     7    23    24    1
     8    24    25    1
     9    25    26    1
    10    25    19    1
    11    19     1    1
    12     1     2    1
    13     2     3    1
    14     3     4    1
    15     4     5    1
    16     5     6    1
    17     4     7    1
    18     7     8    1
    19     8    15    1
    20    15    16    1
    21    15    17    2
    22    15    18    2
    23     8     9    1
    24     9    10   ar
    25    10    11   ar
    26    11    12   ar
    27    12    13   ar
    28    13    14   ar
    29    25    27    1
    30    27    28    1
    31    28    22    1
    32     6     1    1
    33    14     9   ar
    34    14     4    1
@<TRIPOS>MOLECULE
*****
 31 34 0 0 0
SMALL
GASTEIGER

@<TRIPOS>ATOM
      1 N         144.2670  139.5160  162.4076 N.3     1  UNL1       -0.2727
      2 C         144.2232  140.6395  161.4148 C.3     1  UNL1        0.0725
      3 C         143.7388  140.3874  160.0178 C.3     1  UNL1        0.0232
      4 C         143.2982  139.0117  159.6136 C.3     1  UNL1        0.0444
      5 C         143.3420  137.8882  160.6064 C.3     1  UNL1        0.0232
      6 C         143.8265  138.1403  162.0034 C.3     1  UNL1        0.0725
      7 C         142.8282  137.6961  159.0674 C.3     1  UNL1        0.1212
      8 N         142.4382  137.9022  157.6336 N.pl3   1  UNL1       -0.1777
      9 C         142.6673  139.3452  157.2937 C.ar    1  UNL1        0.1461
     10 N         142.4606  140.1233  156.0281 N.ar    1  UNL1       -0.2280
     11 C         142.7854  141.5871  155.9862 C.ar    1  UNL1        0.1003
     12 C         143.3169  142.2728  157.2099 C.ar    1  UNL1        0.0205
     13 C         143.5236  141.4947  158.4754 C.ar    1  UNL1        0.0002
     14 C         143.1988  140.0309  158.5174 C.ar    1  UNL1        0.0120
     15 S         141.9117  136.8501  156.7031 S.O2    1  UNL1        0.0599
     16 C         141.3851  135.7980  155.7726 C.3     1  UNL1        0.1999
     17 O         143.3122  136.3820  156.4398 O.2     1  UNL1       -0.1542
     18 O         140.5110  137.3182  156.9664 O.2     1  UNL1       -0.1542
     19 C         144.7515  139.7681  163.8047 C.3     1  UNL1        0.0721
     20 C         140.5857  141.6785  167.2453 C.2     1  UNL1        0.4049
     21 O         139.5754  140.5970  167.4900 O.2     1  UNL1       -0.2262
     22 N         141.7739  141.4108  166.3697 N.am    1  UNL1       -0.2460
     23 C         141.9518  140.0616  165.7390 C.3     1  UNL1        0.0968
     24 C         143.1400  139.7938  164.8634 C.3     1  UNL1        0.0230
     25 C         144.1502  140.8753  164.6187 C.3     1  UNL1        0.0180
     26 C         145.3692  141.5723  164.0912 C.3     1  UNL1        0.0015
     27 C         143.9722  142.2246  165.2495 C.3     1  UNL1        0.0230
     28 C         142.7840  142.4923  166.1250 C.3     1  UNL1        0.0968
     29 O         140.4077  143.0277  167.8761 O.3     1  UNL1       -0.4345
     30 C         142.0940  142.8417  169.8437 C.3     1  UNL1        0.0513
     31 C         140.7408  143.2283  169.3248 C.3     1  UNL1        0.2102
@<TRIPOS>BOND
     1    30    31    1
     2    31    29    1
     3    29    20    1
     4    20    21    2
     5    20    22   am
     6    22    23    1
     7    23    24    1
     8    24    25    1
     9    25    26    1
    10    25    19    1
    11    19     1    1
    12     1     2    1
    13     2     3    1
    14     3     4    1
    15     4     5    1
    16     5     6    1
    17     4     7    1
    18     7     8    1
    19     8    15    1
    20    15    16    1
    21    15    17    2
    22    15    18    2
    23     8     9    1
    24     9    10   ar
    25    10    11   ar
    26    11    12   ar
    27    12    13   ar
    28    13    14   ar
    29    25    27    1
    30    27    28    1
    31    28    22    1
    32     6     1    1
    33    14     9   ar
    34    14     4    1
