@<TRIPOS>MOLECULE
*****
 40 43 0 0 0
SMALL
GASTEIGER

@<TRIPOS>ATOM
      1 C         144.7968  140.0288  164.5068 C.3     1  UNL1        0.1747
      2 N         143.4950  141.9430  163.3274 N.am    1  UNL1       -0.3018
      3 C         144.1203  140.5802  163.2868 C.2     1  UNL1        0.2425
      4 O         144.0692  139.7687  162.0263 O.2     1  UNL1       -0.2733
      5 H         143.5286  142.4756  164.1547 H       1  UNL1        0.1495
      6 N         141.8619  143.2740  160.3819 N.3     1  UNL1       -0.2711
      7 C         143.2831  143.1676  160.8499 C.3     1  UNL1        0.0933
      8 C         142.8185  142.4943  162.1073 C.3     1  UNL1        0.1035
      9 C         141.3974  142.6008  161.6393 C.3     1  UNL1        0.0933
     10 C         139.8325  144.9280  156.7219 C.3     1  UNL1        0.0992
     11 C         140.4849  145.8572  157.7021 C.3     1  UNL1        0.0125
     12 C         141.1614  145.3059  158.9221 C.3     1  UNL1        0.0165
     13 C         141.1854  143.8254  159.1619 C.3     1  UNL1        0.0576
     14 C         140.5330  142.8962  158.1817 C.3     1  UNL1        0.0165
     15 C         139.8565  143.4475  156.9617 C.3     1  UNL1        0.0125
     16 C         139.1560  145.4792  155.5019 C.2     1  UNL1        0.3164
     17 O         137.6930  145.2336  155.2800 O.2     1  UNL1       -0.2501
     18 O         139.9426  146.2761  154.5037 O.3     1  UNL1       -0.4485
     19 C         138.9283  148.4705  155.4553 C.3     1  UNL1        0.0513
     20 C         139.8428  147.7727  154.4926 C.3     1  UNL1        0.2086
     21 N         144.0702  139.0631  165.3954 N.pl3   1  UNL1       -0.3093
     22 H         144.5329  138.2635  165.7357 H       1  UNL1        0.1487
     23 C         142.6387  139.3157  165.7655 C.ar    1  UNL1        0.1500
     24 N         141.4365  138.7166  165.0979 N.ar    1  UNL1       -0.1542
     25 N         140.2129  139.2425  165.7880 N.ar    1  UNL1       -0.2409
     26 C         140.6589  140.1666  166.8822 C.ar    1  UNL1        0.0809
     27 C         139.8935  140.9726  167.8893 C.ar    1  UNL1        0.0188
     28 C         140.6274  141.8240  168.8826 C.ar    1  UNL1        0.0054
     29 C         142.1266  141.8693  168.8687 C.ar    1  UNL1        0.0716
     30 C         142.8920  141.0632  167.8615 C.ar    1  UNL1        0.0082
     31 C         142.1581  140.2118  166.8683 C.ar    1  UNL1        0.0503
     32 C         142.8605  142.7207  169.8620 C.3     1  UNL1        0.4186
     33 F         143.5944  143.5720  170.8553 F       1  UNL1       -0.1659
     34 F         141.6962  143.6650  169.9129 F       1  UNL1       -0.1659
     35 F         144.0248  141.7763  169.8112 F       1  UNL1       -0.1659
     36 C         138.7926  138.9037  165.4444 C.3     1  UNL1        0.2302
     37 C         138.0538  137.8705  166.2424 C.3     1  UNL1        0.4200
     38 F         137.3151  136.8373  167.0404 F       1  UNL1       -0.1679
     39 F         138.7773  136.7832  165.5045 F       1  UNL1       -0.1679
     40 F         137.3305  138.9577  166.9803 F       1  UNL1       -0.1679
@<TRIPOS>BOND
     1    19    20    1
     2    20    18    1
     3    18    16    1
     4    16    17    2
     5    10    16    1
     6    10    11    1
     7    11    12    1
     8    12    13    1
     9    13     6    1
    10     6     7    1
    11     7     8    1
    12     8     2    1
    13     2     3   am
    14     3     4    2
    15     3     1    1
    16     1    21    1
    17    21    23    1
    18    23    24   ar
    19    24    25   ar
    20    25    36    1
    21    36    37    1
    22    37    38    1
    23    37    39    1
    24    37    40    1
    25    25    26   ar
    26    26    27   ar
    27    27    28   ar
    28    28    29   ar
    29    29    32    1
    30    32    33    1
    31    32    34    1
    32    32    35    1
    33    29    30   ar
    34    30    31   ar
    35     8     9    1
    36    13    14    1
    37    14    15    1
    38    15    10    1
    39     9     6    1
    40    31    23   ar
    41    31    26   ar
    42     2     5    1
    43    21    22    1
@<TRIPOS>MOLECULE
*****
 40 43 0 0 0
SMALL
GASTEIGER

@<TRIPOS>ATOM
      1 C         139.2317  138.3203  159.5492 C.3     1  UNL1        0.1747
      2 N         138.9185  138.3671  162.1279 N.am    1  UNL1       -0.3018
      3 C         139.4572  138.9882  160.8733 C.2     1  UNL1        0.2425
      4 O         140.2213  140.2771  160.9427 O.2     1  UNL1       -0.2733
      5 H         138.4170  137.5211  162.0823 H       1  UNL1        0.1495
      6 N         139.4630  139.9794  165.3245 N.3     1  UNL1       -0.2711
      7 C         140.3179  139.1977  164.3716 C.3     1  UNL1        0.0933
      8 C         139.1440  139.0349  163.4519 C.3     1  UNL1        0.1035
      9 C         138.2891  139.8166  164.4049 C.3     1  UNL1        0.0933
     10 C         140.1393  141.9829  169.2967 C.3     1  UNL1        0.0992
     11 C         140.4755  142.7049  168.0256 C.3     1  UNL1        0.0125
     12 C         140.2500  142.0371  166.7015 C.3     1  UNL1        0.0165
     13 C         139.6884  140.6472  166.6485 C.3     1  UNL1        0.0576
     14 C         139.3523  139.9252  167.9196 C.3     1  UNL1        0.0165
     15 C         139.5777  140.5929  169.2436 C.3     1  UNL1        0.0125
     16 C         140.3647  142.6506  170.6208 C.2     1  UNL1        0.3164
     17 O         139.2540  143.4208  171.2712 O.2     1  UNL1       -0.2501
     18 O         141.7011  142.5482  171.2945 O.3     1  UNL1       -0.4485
     19 C         143.7798  142.3218  169.7526 C.3     1  UNL1        0.0513
     20 C         142.9136  143.1534  170.6516 C.3     1  UNL1        0.2086
     21 N         140.2861  138.3907  158.4845 N.pl3   1  UNL1       -0.3093
     22 H         141.2126  138.6221  158.7238 H       1  UNL1        0.1487
     23 C         139.9288  138.1084  157.0553 C.ar    1  UNL1        0.1500
     24 N         138.8411  138.7789  156.2695 N.ar    1  UNL1       -0.1542
     25 N         138.8365  138.1910  154.8895 N.ar    1  UNL1       -0.2409
     26 C         139.9213  137.1571  154.8225 C.ar    1  UNL1        0.0809
     27 C         140.3816  136.2556  153.7155 C.ar    1  UNL1        0.0188
     28 C         141.5169  135.3031  153.9471 C.ar    1  UNL1        0.0054
     29 C         142.1920  135.2521  155.2857 C.ar    1  UNL1        0.0716
     30 C         141.7317  136.1536  156.3926 C.ar    1  UNL1        0.0082
     31 C         140.5963  137.1061  156.1610 C.ar    1  UNL1        0.0503
     32 C         143.3273  134.2995  155.5172 C.3     1  UNL1        0.4186
     33 F         144.4627  133.3470  155.7488 F       1  UNL1       -0.1659
     34 F         142.9084  133.5077  154.3141 F       1  UNL1       -0.1659
     35 F         143.7462  135.0913  156.7203 F       1  UNL1       -0.1659
     36 C         137.9099  138.5703  153.7727 C.3     1  UNL1        0.2302
     37 C         136.4798  138.9135  154.0684 C.3     1  UNL1        0.4200
     38 F         135.0499  139.2567  154.3642 F       1  UNL1       -0.1679
     39 F         136.7358  140.3334  153.6579 F       1  UNL1       -0.1679
     40 F         136.2240  137.4937  154.4789 F       1  UNL1       -0.1679
@<TRIPOS>BOND
     1    19    20    1
     2    20    18    1
     3    18    16    1
     4    16    17    2
     5    10    16    1
     6    10    11    1
     7    11    12    1
     8    12    13    1
     9    13     6    1
    10     6     7    1
    11     7     8    1
    12     8     2    1
    13     2     3   am
    14     3     4    2
    15     3     1    1
    16     1    21    1
    17    21    23    1
    18    23    24   ar
    19    24    25   ar
    20    25    36    1
    21    36    37    1
    22    37    38    1
    23    37    39    1
    24    37    40    1
    25    25    26   ar
    26    26    27   ar
    27    27    28   ar
    28    28    29   ar
    29    29    32    1
    30    32    33    1
    31    32    34    1
    32    32    35    1
    33    29    30   ar
    34    30    31   ar
    35     8     9    1
    36    13    14    1
    37    14    15    1
    38    15    10    1
    39     9     6    1
    40    31    23   ar
    41    31    26   ar
    42     2     5    1
    43    21    22    1
@<TRIPOS>MOLECULE
*****
 40 43 0 0 0
SMALL
GASTEIGER

@<TRIPOS>ATOM
      1 C         139.0749  144.3784  162.7850 C.3     1  UNL1        0.1747
      2 N         140.5373  142.4823  161.7772 N.am    1  UNL1       -0.3018
      3 C         139.2693  143.2836  161.7783 C.2     1  UNL1        0.2425
      4 O         138.1957  142.9900  160.7727 O.2     1  UNL1       -0.2733
      5 H         141.2419  142.6750  162.4372 H       1  UNL1        0.1495
      6 N         141.0067  139.8391  159.3468 N.3     1  UNL1       -0.2711
      7 C         140.4683  139.9109  160.7450 C.3     1  UNL1        0.0933
      8 C         140.7318  141.3875  160.7705 C.3     1  UNL1        0.1035
      9 C         141.2701  141.3155  159.3723 C.3     1  UNL1        0.0933
     10 C         141.5900  136.5545  156.3266 C.3     1  UNL1        0.0992
     11 C         142.7184  136.9493  157.2326 C.3     1  UNL1        0.0125
     12 C         142.5239  138.0442  158.2394 C.3     1  UNL1        0.0165
     13 C         141.2011  138.7442  158.3401 C.3     1  UNL1        0.0576
     14 C         140.0728  138.3494  157.4341 C.3     1  UNL1        0.0165
     15 C         140.2672  137.2546  156.4274 C.3     1  UNL1        0.0125
     16 C         141.7843  135.4597  155.3199 C.2     1  UNL1        0.3164
     17 O         142.3170  135.7816  153.9551 O.2     1  UNL1       -0.2501
     18 O         141.4459  134.0429  155.6779 O.3     1  UNL1       -0.4485
     19 C         143.3960  132.3987  155.1839 C.3     1  UNL1        0.0513
     20 C         142.5190  133.1160  156.1670 C.3     1  UNL1        0.2086
     21 N         138.3487  144.0980  164.0673 N.pl3   1  UNL1       -0.3093
     22 H         137.4298  144.4277  164.1949 H       1  UNL1        0.1487
     23 C         139.0225  143.3152  165.1551 C.ar    1  UNL1        0.1500
     24 N         139.6452  143.8849  166.3951 N.ar    1  UNL1       -0.1542
     25 N         140.1994  142.7471  167.2002 N.ar    1  UNL1       -0.2409
     26 C         139.9193  141.4742  166.4577 C.ar    1  UNL1        0.0809
     27 C         140.2327  140.0408  166.7693 C.ar    1  UNL1        0.0188
     28 C         139.8186  138.9585  165.8168 C.ar    1  UNL1        0.0054
     29 C         139.0912  139.3096  164.5529 C.ar    1  UNL1        0.0716
     30 C         138.7778  140.7430  164.2413 C.ar    1  UNL1        0.0082
     31 C         139.1919  141.8253  165.1937 C.ar    1  UNL1        0.0503
     32 C         138.6771  138.2272  163.6004 C.3     1  UNL1        0.4186
     33 F         138.2630  137.1449  162.6481 F       1  UNL1       -0.1659
     34 F         137.8532  139.2180  162.8326 F       1  UNL1       -0.1659
     35 F         139.5009  137.2365  164.3683 F       1  UNL1       -0.1659
     36 C         140.9092  142.8620  168.5166 C.3     1  UNL1        0.2302
     37 C         140.1241  143.0859  169.7750 C.3     1  UNL1        0.4200
     38 F         139.3389  143.3097  171.0333 F       1  UNL1       -0.1679
     39 F         140.6504  144.4883  169.8539 F       1  UNL1       -0.1679
     40 F         139.5978  141.6835  169.6961 F       1  UNL1       -0.1679
@<TRIPOS>BOND
     1    19    20    1
     2    20    18    1
     3    18    16    1
     4    16    17    2
     5    10    16    1
     6    10    11    1
     7    11    12    1
     8    12    13    1
     9    13     6    1
    10     6     7    1
    11     7     8    1
    12     8     2    1
    13     2     3   am
    14     3     4    2
    15     3     1    1
    16     1    21    1
    17    21    23    1
    18    23    24   ar
    19    24    25   ar
    20    25    36    1
    21    36    37    1
    22    37    38    1
    23    37    39    1
    24    37    40    1
    25    25    26   ar
    26    26    27   ar
    27    27    28   ar
    28    28    29   ar
    29    29    32    1
    30    32    33    1
    31    32    34    1
    32    32    35    1
    33    29    30   ar
    34    30    31   ar
    35     8     9    1
    36    13    14    1
    37    14    15    1
    38    15    10    1
    39     9     6    1
    40    31    23   ar
    41    31    26   ar
    42     2     5    1
    43    21    22    1
@<TRIPOS>MOLECULE
*****
 40 43 0 0 0
SMALL
GASTEIGER

@<TRIPOS>ATOM
      1 C         139.6046  138.2934  158.3343 C.3     1  UNL1        0.1747
      2 N         138.6900  138.0828  160.7569 N.am    1  UNL1       -0.3018
      3 C         139.6813  138.6558  159.7879 C.2     1  UNL1        0.2425
      4 O         140.7492  139.5911  160.2724 O.2     1  UNL1       -0.2733
      5 H         137.9891  137.4689  160.4389 H       1  UNL1        0.1495
      6 N         138.8753  138.9575  164.2662 N.3     1  UNL1       -0.2711
      7 C         139.3972  137.8305  163.4250 C.3     1  UNL1        0.0933
      8 C         138.7667  138.4451  162.2105 C.3     1  UNL1        0.1035
      9 C         138.2449  139.5720  163.0517 C.3     1  UNL1        0.0933
     10 C         139.1054  140.0446  168.6268 C.3     1  UNL1        0.0992
     11 C         138.0390  139.1073  168.1428 C.3     1  UNL1        0.0125
     12 C         137.9623  138.7450  166.6892 C.3     1  UNL1        0.0165
     13 C         138.9520  139.3199  165.7197 C.3     1  UNL1        0.0576
     14 C         140.0184  140.2571  166.2038 C.3     1  UNL1        0.0165
     15 C         140.0952  140.6194  167.6572 C.3     1  UNL1        0.0125
     16 C         139.1822  140.4070  170.0803 C.2     1  UNL1        0.3164
     17 O         139.5249  139.3592  171.0975 O.2     1  UNL1       -0.2501
     18 O         138.9164  141.8173  170.5167 O.3     1  UNL1       -0.4485
     19 C         140.4903  143.6886  169.6386 C.3     1  UNL1        0.0513
     20 C         140.0601  142.7625  170.7373 C.3     1  UNL1        0.2086
     21 N         140.0626  139.2707  157.2925 N.pl3   1  UNL1       -0.3093
     22 H         139.4549  139.9805  156.9824 H       1  UNL1        0.1487
     23 C         141.4465  139.1665  156.7233 C.ar    1  UNL1        0.1500
     24 N         142.3579  140.3147  156.4056 N.ar    1  UNL1       -0.1542
     25 N         143.6366  139.7536  155.8578 N.ar    1  UNL1       -0.2409
     26 C         143.5154  138.2586  155.8369 C.ar    1  UNL1        0.0809
     27 C         144.4628  137.1809  155.4000 C.ar    1  UNL1        0.0188
     28 C         144.0565  135.7403  155.4979 C.ar    1  UNL1        0.0054
     29 C         142.7029  135.3775  156.0328 C.ar    1  UNL1        0.0716
     30 C         141.7556  136.4552  156.4698 C.ar    1  UNL1        0.0082
     31 C         142.1619  137.8958  156.3719 C.ar    1  UNL1        0.0503
     32 C         142.2966  133.9368  156.1308 C.3     1  UNL1        0.4186
     33 F         141.8904  132.4962  156.2286 F       1  UNL1       -0.1659
     34 F         143.1546  133.7777  157.3508 F       1  UNL1       -0.1659
     35 F         141.4387  134.0958  154.9107 F       1  UNL1       -0.1659
     36 C         144.8274  140.5479  155.4095 C.3     1  UNL1        0.2302
     37 C         145.5329  141.4523  156.3764 C.3     1  UNL1        0.4200
     38 F         146.2382  142.3566  157.3430 F       1  UNL1       -0.1679
     39 F         145.2386  140.4913  157.4899 F       1  UNL1       -0.1679
     40 F         145.8270  142.4132  155.2628 F       1  UNL1       -0.1679
@<TRIPOS>BOND
     1    19    20    1
     2    20    18    1
     3    18    16    1
     4    16    17    2
     5    10    16    1
     6    10    11    1
     7    11    12    1
     8    12    13    1
     9    13     6    1
    10     6     7    1
    11     7     8    1
    12     8     2    1
    13     2     3   am
    14     3     4    2
    15     3     1    1
    16     1    21    1
    17    21    23    1
    18    23    24   ar
    19    24    25   ar
    20    25    36    1
    21    36    37    1
    22    37    38    1
    23    37    39    1
    24    37    40    1
    25    25    26   ar
    26    26    27   ar
    27    27    28   ar
    28    28    29   ar
    29    29    32    1
    30    32    33    1
    31    32    34    1
    32    32    35    1
    33    29    30   ar
    34    30    31   ar
    35     8     9    1
    36    13    14    1
    37    14    15    1
    38    15    10    1
    39     9     6    1
    40    31    23   ar
    41    31    26   ar
    42     2     5    1
    43    21    22    1
@<TRIPOS>MOLECULE
*****
 40 43 0 0 0
SMALL
GASTEIGER

@<TRIPOS>ATOM
      1 C         144.2293  140.6851  163.3938 C.3     1  UNL1        0.1747
      2 N         143.5286  140.3570  160.9136 N.am    1  UNL1       -0.3018
      3 C         143.9701  139.7801  162.2259 C.2     1  UNL1        0.2425
      4 O         144.1524  138.2982  162.3704 O.2     1  UNL1       -0.2733
      5 H         143.4089  141.3296  160.8188 H       1  UNL1        0.1495
      6 N         142.9028  138.1722  158.0943 N.3     1  UNL1       -0.2711
      7 C         142.7714  138.0464  159.5832 C.3     1  UNL1        0.0933
      8 C         143.2694  139.4521  159.7458 C.3     1  UNL1        0.1035
      9 C         143.4009  139.5777  158.2569 C.3     1  UNL1        0.0933
     10 C         142.1253  135.4572  154.5907 C.3     1  UNL1        0.0992
     11 C         143.5316  135.7041  155.0507 C.3     1  UNL1        0.0125
     12 C         143.7907  136.6090  156.2185 C.3     1  UNL1        0.0165
     13 C         142.6437  137.2672  156.9264 C.3     1  UNL1        0.0576
     14 C         141.2375  137.0203  156.4664 C.3     1  UNL1        0.0165
     15 C         140.9783  136.1154  155.2987 C.3     1  UNL1        0.0125
     16 C         141.8660  134.5523  153.4229 C.2     1  UNL1        0.3164
     17 O         141.4755  135.1330  152.0962 O.2     1  UNL1       -0.2501
     18 O         141.9973  133.0665  153.5818 O.3     1  UNL1       -0.4485
     19 C         142.2538  132.0536  155.9605 C.3     1  UNL1        0.0513
     20 C         141.3966  132.3838  154.7747 C.3     1  UNL1        0.2086
     21 N         143.1774  141.6589  163.8359 N.pl3   1  UNL1       -0.3093
     22 H         143.2808  142.6180  163.6394 H       1  UNL1        0.1487
     23 C         141.9681  141.1713  164.5774 C.ar    1  UNL1        0.1500
     24 N         140.8188  140.4100  163.9861 N.ar    1  UNL1       -0.1542
     25 N         139.8362  140.1277  165.0837 N.ar    1  UNL1       -0.2409
     26 C         140.3781  140.7145  166.3533 C.ar    1  UNL1        0.0809
     27 C         139.8421  140.7447  167.7539 C.ar    1  UNL1        0.0188
     28 C         140.6236  141.4201  168.8416 C.ar    1  UNL1        0.0054
     29 C         141.9412  142.0651  168.5287 C.ar    1  UNL1        0.0716
     30 C         142.4772  142.0348  167.1281 C.ar    1  UNL1        0.0082
     31 C         141.6957  141.3595  166.0404 C.ar    1  UNL1        0.0503
     32 C         142.7227  142.7404  169.6165 C.3     1  UNL1        0.4186
     33 F         143.5041  143.4158  170.7042 F       1  UNL1       -0.1659
     34 F         143.8557  141.7822  169.3975 F       1  UNL1       -0.1659
     35 F         141.5897  143.6987  169.8355 F       1  UNL1       -0.1659
     36 C         138.5393  139.3883  164.9373 C.3     1  UNL1        0.2302
     37 C         138.3208  138.1031  165.6793 C.3     1  UNL1        0.4200
     38 F         138.1024  136.8178  166.4212 F       1  UNL1       -0.1679
     39 F         137.4257  138.8154  166.6496 F       1  UNL1       -0.1679
     40 F         139.2159  137.3908  164.7090 F       1  UNL1       -0.1679
@<TRIPOS>BOND
     1    19    20    1
     2    20    18    1
     3    18    16    1
     4    16    17    2
     5    10    16    1
     6    10    11    1
     7    11    12    1
     8    12    13    1
     9    13     6    1
    10     6     7    1
    11     7     8    1
    12     8     2    1
    13     2     3   am
    14     3     4    2
    15     3     1    1
    16     1    21    1
    17    21    23    1
    18    23    24   ar
    19    24    25   ar
    20    25    36    1
    21    36    37    1
    22    37    38    1
    23    37    39    1
    24    37    40    1
    25    25    26   ar
    26    26    27   ar
    27    27    28   ar
    28    28    29   ar
    29    29    32    1
    30    32    33    1
    31    32    34    1
    32    32    35    1
    33    29    30   ar
    34    30    31   ar
    35     8     9    1
    36    13    14    1
    37    14    15    1
    38    15    10    1
    39     9     6    1
    40    31    23   ar
    41    31    26   ar
    42     2     5    1
    43    21    22    1
@<TRIPOS>MOLECULE
*****
 40 43 0 0 0
SMALL
GASTEIGER

@<TRIPOS>ATOM
      1 C         144.9687  139.1566  164.9860 C.3     1  UNL1        0.1747
      2 N         143.9909  141.3554  164.0067 N.am    1  UNL1       -0.3018
      3 C         144.3502  139.9081  163.8446 C.2     1  UNL1        0.2425
      4 O         144.0911  139.2124  162.5412 O.2     1  UNL1       -0.2733
      5 H         144.1610  141.8120  164.8621 H       1  UNL1        0.1495
      6 N         142.4977  143.1697  161.2511 N.3     1  UNL1       -0.2711
      7 C         142.0369  142.0880  162.1825 C.3     1  UNL1        0.0933
      8 C         143.3725  142.1069  162.8653 C.3     1  UNL1        0.1035
      9 C         143.8332  143.1886  161.9338 C.3     1  UNL1        0.0933
     10 C         140.6423  145.4242  157.8270 C.3     1  UNL1        0.0992
     11 C         140.2360  145.7345  159.2371 C.3     1  UNL1        0.0125
     12 C         140.8545  144.9830  160.3785 C.3     1  UNL1        0.0165
     13 C         141.8793  143.9212  160.1097 C.3     1  UNL1        0.0576
     14 C         142.2856  143.6108  158.6996 C.3     1  UNL1        0.0165
     15 C         141.6672  144.3623  157.5582 C.3     1  UNL1        0.0125
     16 C         140.0240  146.1756  156.6855 C.2     1  UNL1        0.3164
     17 O         139.2785  147.4514  156.9436 O.2     1  UNL1       -0.2501
     18 O         140.1510  145.6512  155.2859 O.3     1  UNL1       -0.4485
     19 C         137.6421  145.0661  154.9501 C.3     1  UNL1        0.0513
     20 C         139.0910  144.7516  154.7229 C.3     1  UNL1        0.2086
     21 N         144.1009  138.3742  165.9267 N.pl3   1  UNL1       -0.3093
     22 H         144.3007  137.4275  166.1086 H       1  UNL1        0.1487
     23 C         142.9288  139.0343  166.5903 C.ar    1  UNL1        0.1500
     24 N         142.9510  139.7550  167.9057 N.ar    1  UNL1       -0.1542
     25 N         141.5646  140.2557  168.1833 N.ar    1  UNL1       -0.2409
     26 C         140.6854  139.8444  167.0396 C.ar    1  UNL1        0.0809
     27 C         139.2262  140.0597  166.7675 C.ar    1  UNL1        0.0188
     28 C         138.6100  139.5201  165.5109 C.ar    1  UNL1        0.0054
     29 C         139.4531  138.7653  164.5264 C.ar    1  UNL1        0.0716
     30 C         140.9124  138.5500  164.7985 C.ar    1  UNL1        0.0082
     31 C         141.5286  139.0895  166.0551 C.ar    1  UNL1        0.0503
     32 C         138.8369  138.2257  163.2697 C.3     1  UNL1        0.4186
     33 F         138.2208  137.6862  162.0130 F       1  UNL1       -0.1659
     34 F         137.7971  139.3058  163.3157 F       1  UNL1       -0.1659
     35 F         139.8767  137.1456  163.2236 F       1  UNL1       -0.1659
     36 C         141.1330  141.0314  169.3924 C.3     1  UNL1        0.2302
     37 C         140.6507  142.4442  169.2444 C.3     1  UNL1        0.4200
     38 F         140.1686  143.8568  169.0963 F       1  UNL1       -0.1679
     39 F         139.3969  142.0943  169.9897 F       1  UNL1       -0.1679
     40 F         141.9046  142.7939  168.4990 F       1  UNL1       -0.1679
@<TRIPOS>BOND
     1    19    20    1
     2    20    18    1
     3    18    16    1
     4    16    17    2
     5    10    16    1
     6    10    11    1
     7    11    12    1
     8    12    13    1
     9    13     6    1
    10     6     7    1
    11     7     8    1
    12     8     2    1
    13     2     3   am
    14     3     4    2
    15     3     1    1
    16     1    21    1
    17    21    23    1
    18    23    24   ar
    19    24    25   ar
    20    25    36    1
    21    36    37    1
    22    37    38    1
    23    37    39    1
    24    37    40    1
    25    25    26   ar
    26    26    27   ar
    27    27    28   ar
    28    28    29   ar
    29    29    32    1
    30    32    33    1
    31    32    34    1
    32    32    35    1
    33    29    30   ar
    34    30    31   ar
    35     8     9    1
    36    13    14    1
    37    14    15    1
    38    15    10    1
    39     9     6    1
    40    31    23   ar
    41    31    26   ar
    42     2     5    1
    43    21    22    1
@<TRIPOS>MOLECULE
*****
 40 43 0 0 0
SMALL
GASTEIGER

@<TRIPOS>ATOM
      1 C         142.6972  139.0337  158.6236 C.3     1  UNL1        0.1747
      2 N         141.6925  138.4153  160.9383 N.am    1  UNL1       -0.3018
      3 C         142.5184  139.3300  160.0832 C.2     1  UNL1        0.2425
      4 O         143.1653  140.5408  160.6875 O.2     1  UNL1       -0.2733
      5 H         141.2678  137.6206  160.5416 H       1  UNL1        0.1495
      6 N         141.2605  139.1307  164.4619 N.3     1  UNL1       -0.2711
      7 C         140.8508  139.8030  163.1852 C.3     1  UNL1        0.0933
      8 C         141.5136  138.7116  162.3978 C.3     1  UNL1        0.1035
      9 C         141.9232  138.0394  163.6746 C.3     1  UNL1        0.0933
     10 C         140.7238  140.0194  168.8405 C.3     1  UNL1        0.0992
     11 C         142.0913  139.7308  168.2959 C.3     1  UNL1        0.0125
     12 C         142.2702  139.4346  166.8364 C.3     1  UNL1        0.0165
     13 C         141.0816  139.4269  165.9215 C.3     1  UNL1        0.0576
     14 C         139.7141  139.7155  166.4661 C.3     1  UNL1        0.0165
     15 C         139.5352  140.0118  167.9255 C.3     1  UNL1        0.0125
     16 C         140.5448  140.3157  170.3000 C.2     1  UNL1        0.3164
     17 O         139.5178  139.5672  171.0969 O.2     1  UNL1       -0.2501
     18 O         141.3929  141.3606  170.9627 O.3     1  UNL1       -0.4485
     19 C         140.4121  143.5056  169.8732 C.3     1  UNL1        0.0513
     20 C         141.5969  142.6913  170.3012 C.3     1  UNL1        0.2086
     21 N         143.2216  137.6974  158.1883 N.pl3   1  UNL1       -0.3093
     22 H         144.0376  137.3310  158.5996 H       1  UNL1        0.1487
     23 C         142.5027  136.9193  157.1264 C.ar    1  UNL1        0.1500
     24 N         141.5007  137.4703  156.1557 N.ar    1  UNL1       -0.1542
     25 N         141.0383  136.3451  155.2781 N.ar    1  UNL1       -0.2409
     26 C         141.7545  135.0987  155.7065 C.ar    1  UNL1        0.0809
     27 C         141.6995  133.6865  155.2040 C.ar    1  UNL1        0.0188
     28 C         142.5495  132.6291  155.8438 C.ar    1  UNL1        0.0054
     29 C         143.4546  132.9840  156.9861 C.ar    1  UNL1        0.0716
     30 C         143.5096  134.3962  157.4886 C.ar    1  UNL1        0.0082
     31 C         142.6596  135.4536  156.8488 C.ar    1  UNL1        0.0503
     32 C         144.3047  131.9266  157.6259 C.3     1  UNL1        0.4186
     33 F         145.1547  130.8692  158.2657 F       1  UNL1       -0.1659
     34 F         143.5137  130.8644  156.9215 F       1  UNL1       -0.1659
     35 F         145.0956  132.9887  158.3303 F       1  UNL1       -0.1659
     36 C         140.0357  136.4482  154.1672 C.3     1  UNL1        0.2302
     37 C         138.9136  137.4395  154.2591 C.3     1  UNL1        0.4200
     38 F         137.7916  138.4308  154.3511 F       1  UNL1       -0.1679
     39 F         139.4003  138.1064  153.0068 F       1  UNL1       -0.1679
     40 F         138.4271  136.7726  155.5114 F       1  UNL1       -0.1679
@<TRIPOS>BOND
     1    19    20    1
     2    20    18    1
     3    18    16    1
     4    16    17    2
     5    10    16    1
     6    10    11    1
     7    11    12    1
     8    12    13    1
     9    13     6    1
    10     6     7    1
    11     7     8    1
    12     8     2    1
    13     2     3   am
    14     3     4    2
    15     3     1    1
    16     1    21    1
    17    21    23    1
    18    23    24   ar
    19    24    25   ar
    20    25    36    1
    21    36    37    1
    22    37    38    1
    23    37    39    1
    24    37    40    1
    25    25    26   ar
    26    26    27   ar
    27    27    28   ar
    28    28    29   ar
    29    29    32    1
    30    32    33    1
    31    32    34    1
    32    32    35    1
    33    29    30   ar
    34    30    31   ar
    35     8     9    1
    36    13    14    1
    37    14    15    1
    38    15    10    1
    39     9     6    1
    40    31    23   ar
    41    31    26   ar
    42     2     5    1
    43    21    22    1
@<TRIPOS>MOLECULE
*****
 40 43 0 0 0
SMALL
GASTEIGER

@<TRIPOS>ATOM
      1 C         137.5220  143.6683  162.8849 C.3     1  UNL1        0.1747
      2 N         138.0594  141.3619  161.8165 N.am    1  UNL1       -0.3018
      3 C         138.2368  142.8510  161.8499 C.2     1  UNL1        0.2425
      4 O         139.1289  143.5227  160.8485 O.2     1  UNL1       -0.2733
      5 H         137.4739  140.9210  162.4738 H       1  UNL1        0.1495
      6 N         139.7850  139.3888  159.3179 N.3     1  UNL1       -0.2711
      7 C         139.3875  140.8297  159.4426 C.3     1  UNL1        0.0933
      8 C         138.7742  140.5446  160.7816 C.3     1  UNL1        0.1035
      9 C         139.1718  139.1037  160.6567 C.3     1  UNL1        0.0933
     10 C         141.9293  136.9368  156.2130 C.3     1  UNL1        0.0992
     11 C         140.4371  137.0788  156.1573 C.3     1  UNL1        0.0125
     12 C         139.7224  137.8961  157.1923 C.3     1  UNL1        0.0165
     13 C         140.4998  138.5714  158.2829 C.3     1  UNL1        0.0576
     14 C         141.9920  138.4294  158.3386 C.3     1  UNL1        0.0165
     15 C         142.7068  137.6121  157.3038 C.3     1  UNL1        0.0125
     16 C         142.6442  136.1195  155.1782 C.2     1  UNL1        0.3164
     17 O         142.4078  136.3820  153.7204 O.2     1  UNL1       -0.2501
     18 O         143.5956  135.0396  155.6012 O.3     1  UNL1       -0.4485
     19 C         143.7041  133.8860  157.9266 C.3     1  UNL1        0.0513
     20 C         143.1383  133.9623  156.5395 C.3     1  UNL1        0.2086
     21 N         138.0968  143.8009  164.2641 N.pl3   1  UNL1       -0.3093
     22 H         137.5839  144.2581  164.9692 H       1  UNL1        0.1487
     23 C         139.4529  143.2369  164.5690 C.ar    1  UNL1        0.1500
     24 N         140.7558  143.9742  164.4754 N.ar    1  UNL1       -0.1542
     25 N         141.8522  143.0295  164.8695 N.ar    1  UNL1       -0.2409
     26 C         141.2270  141.7084  165.2067 C.ar    1  UNL1        0.0809
     27 C         141.8164  140.4053  165.6589 C.ar    1  UNL1        0.0188
     28 C         140.9228  139.2304  165.9253 C.ar    1  UNL1        0.0054
     29 C         139.4399  139.3585  165.7396 C.ar    1  UNL1        0.0716
     30 C         138.8505  140.6616  165.2874 C.ar    1  UNL1        0.0082
     31 C         139.7441  141.8366  165.0210 C.ar    1  UNL1        0.0503
     32 C         138.5463  138.1835  166.0060 C.3     1  UNL1        0.4186
     33 F         137.6528  137.0085  166.2724 F       1  UNL1       -0.1659
     34 F         137.6261  139.0631  166.7994 F       1  UNL1       -0.1659
     35 F         139.4665  137.3039  165.2127 F       1  UNL1       -0.1659
     36 C         143.3169  143.3497  164.9179 C.3     1  UNL1        0.2302
     37 C         144.0270  143.8029  163.6767 C.3     1  UNL1        0.4200
     38 F         144.7371  144.2560  162.4356 F       1  UNL1       -0.1679
     39 F         144.1394  142.3782  163.2210 F       1  UNL1       -0.1679
     40 F         143.9146  145.2275  164.1326 F       1  UNL1       -0.1679
@<TRIPOS>BOND
     1    19    20    1
     2    20    18    1
     3    18    16    1
     4    16    17    2
     5    10    16    1
     6    10    11    1
     7    11    12    1
     8    12    13    1
     9    13     6    1
    10     6     7    1
    11     7     8    1
    12     8     2    1
    13     2     3   am
    14     3     4    2
    15     3     1    1
    16     1    21    1
    17    21    23    1
    18    23    24   ar
    19    24    25   ar
    20    25    36    1
    21    36    37    1
    22    37    38    1
    23    37    39    1
    24    37    40    1
    25    25    26   ar
    26    26    27   ar
    27    27    28   ar
    28    28    29   ar
    29    29    32    1
    30    32    33    1
    31    32    34    1
    32    32    35    1
    33    29    30   ar
    34    30    31   ar
    35     8     9    1
    36    13    14    1
    37    14    15    1
    38    15    10    1
    39     9     6    1
    40    31    23   ar
    41    31    26   ar
    42     2     5    1
    43    21    22    1
@<TRIPOS>MOLECULE
*****
 40 43 0 0 0
SMALL
GASTEIGER

@<TRIPOS>ATOM
      1 C         138.9354  144.5209  163.4437 C.3     1  UNL1        0.1747
      2 N         140.4312  142.7456  162.2772 N.am    1  UNL1       -0.3018
      3 C         139.1122  143.4472  162.4112 C.2     1  UNL1        0.2425
      4 O         137.9701  143.0752  161.5128 O.2     1  UNL1       -0.2733
      5 H         141.1808  142.9898  162.8669 H       1  UNL1        0.1495
      6 N         140.8580  140.1535  159.7847 N.3     1  UNL1       -0.2711
      7 C         140.2026  140.2322  161.1316 C.3     1  UNL1        0.0933
      8 C         140.6080  141.6720  161.2448 C.3     1  UNL1        0.1035
      9 C         141.2634  141.5932  159.8979 C.3     1  UNL1        0.0933
     10 C         141.3885  136.9325  156.6873 C.3     1  UNL1        0.0992
     11 C         142.5576  137.3761  157.5158 C.3     1  UNL1        0.0125
     12 C         142.3807  138.4498  158.5483 C.3     1  UNL1        0.0165
     13 C         141.0348  139.0798  158.7522 C.3     1  UNL1        0.0576
     14 C         139.8658  138.6362  157.9237 C.3     1  UNL1        0.0165
     15 C         140.0426  137.5626  156.8913 C.3     1  UNL1        0.0125
     16 C         141.5652  135.8589  155.6548 C.2     1  UNL1        0.3164
     17 O         141.3960  136.1822  154.1999 O.2     1  UNL1       -0.2501
     18 O         141.9111  134.4617  156.0773 O.3     1  UNL1       -0.4485
     19 C         143.9401  133.6860  157.5027 C.3     1  UNL1        0.0513
     20 C         143.3477  134.0404  156.1710 C.3     1  UNL1        0.2086
     21 N         139.1864  144.2181  164.8913 N.pl3   1  UNL1       -0.3093
     22 H         139.3216  144.9534  165.5318 H       1  UNL1        0.1487
     23 C         139.2314  142.7948  165.3629 C.ar    1  UNL1        0.1500
     24 N         138.5527  141.6276  164.7095 N.ar    1  UNL1       -0.1542
     25 N         138.8649  140.4004  165.5136 N.ar    1  UNL1       -0.2409
     26 C         139.7364  140.8092  166.6639 C.ar    1  UNL1        0.0809
     27 C         140.3531  140.0251  167.7841 C.ar    1  UNL1        0.0188
     28 C         141.1962  140.7208  168.8112 C.ar    1  UNL1        0.0054
     29 C         141.4227  142.2007  168.7181 C.ar    1  UNL1        0.0716
     30 C         140.8061  142.9848  167.5979 C.ar    1  UNL1        0.0082
     31 C         139.9630  142.2890  166.5708 C.ar    1  UNL1        0.0503
     32 C         142.2660  142.8964  169.7453 C.3     1  UNL1        0.4186
     33 F         143.1091  143.5921  170.7724 F       1  UNL1       -0.1659
     34 F         141.1979  143.9352  169.9185 F       1  UNL1       -0.1659
     35 F         143.3340  141.8576  169.5720 F       1  UNL1       -0.1659
     36 C         138.3890  139.0087  165.2190 C.3     1  UNL1        0.2302
     37 C         139.3830  137.9097  164.9861 C.3     1  UNL1        0.4200
     38 F         140.3770  136.8107  164.7531 F       1  UNL1       -0.1679
     39 F         140.2748  138.8708  164.2573 F       1  UNL1       -0.1679
     40 F         138.4912  136.9487  165.7148 F       1  UNL1       -0.1679
@<TRIPOS>BOND
     1    19    20    1
     2    20    18    1
     3    18    16    1
     4    16    17    2
     5    10    16    1
     6    10    11    1
     7    11    12    1
     8    12    13    1
     9    13     6    1
    10     6     7    1
    11     7     8    1
    12     8     2    1
    13     2     3   am
    14     3     4    2
    15     3     1    1
    16     1    21    1
    17    21    23    1
    18    23    24   ar
    19    24    25   ar
    20    25    36    1
    21    36    37    1
    22    37    38    1
    23    37    39    1
    24    37    40    1
    25    25    26   ar
    26    26    27   ar
    27    27    28   ar
    28    28    29   ar
    29    29    32    1
    30    32    33    1
    31    32    34    1
    32    32    35    1
    33    29    30   ar
    34    30    31   ar
    35     8     9    1
    36    13    14    1
    37    14    15    1
    38    15    10    1
    39     9     6    1
    40    31    23   ar
    41    31    26   ar
    42     2     5    1
    43    21    22    1
