@<TRIPOS>MOLECULE
*****
 36 40 0 0 0
SMALL
GASTEIGER

@<TRIPOS>ATOM
      1 C         138.9690  139.7966  167.1202 C.ar    1  UNL1        0.0659
      2 C         138.6020  138.3551  166.9270 C.ar    1  UNL1        0.0159
      3 C         138.5668  137.7688  165.5468 C.ar    1  UNL1        0.0014
      4 C         138.8985  138.6239  164.3599 C.ar    1  UNL1        0.0032
      5 C         138.8035  137.8464  163.0807 C.ar    1  UNL1        0.0016
      6 C         139.0520  138.3184  161.6787 C.ar    1  UNL1        0.0192
      7 C         139.4569  139.6845  161.2098 C.ar    1  UNL1        0.0844
      8 N         139.6001  139.7315  159.7174 N.ar    1  UNL1       -0.2437
      9 C         139.9997  141.0099  159.0422 C.ar    1  UNL1        0.0989
     10 C         140.2561  142.2413  159.8594 C.ar    1  UNL1        0.0223
     11 C         140.1129  142.1944  161.3517 C.ar    1  UNL1        0.0063
     12 C         139.7133  140.9159  162.0270 C.ar    1  UNL1        0.0566
     13 C         139.6281  141.0855  163.5150 C.ar    1  UNL1        0.1970
     14 O         139.9478  142.4563  164.0331 O.2     1  UNL1       -0.2865
     15 C         139.2655  140.0654  164.5532 C.ar    1  UNL1        0.0403
     16 C         139.3007  140.6517  165.9333 C.ar    1  UNL1        0.0191
     17 C         140.6558  143.5198  159.1842 C.ar    1  UNL1        0.0411
     18 C         141.8150  144.3927  159.5642 C.ar    1  UNL1        0.1217
     19 N         141.8419  145.5621  158.6253 N.ar    1  UNL1       -0.1676
     20 N         140.6994  145.4122  157.6650 N.ar    1  UNL1       -0.2473
     21 C         140.3511  146.3582  156.5543 C.3     1  UNL1        0.1538
     22 C         139.9663  144.1499  158.0104 C.ar    1  UNL1        0.0967
     23 N         139.0043  140.3831  168.5005 N.pl3   1  UNL1       -0.2052
     24 H         138.1684  140.4990  169.0076 H       1  UNL1        0.1748
     25 S         140.3131  140.7928  169.1080 S.O2    1  UNL1        0.1133
     26 O         140.1517  142.1670  168.5288 O.2     1  UNL1       -0.1379
     27 O         140.4744  139.4186  169.6872 O.2     1  UNL1       -0.1379
     28 C         141.6428  141.9750  171.0013 C.3     1  UNL1        0.1167
     29 N         141.6219  141.2027  169.7156 N.3     1  UNL1       -0.1369
     30 C         142.9098  140.8401  169.0374 C.3     1  UNL1        0.1235
     31 C         142.9214  140.5192  167.5723 C.ar    1  UNL1       -0.0044
     32 C         143.0206  141.6245  166.5631 C.ar    1  UNL1       -0.0029
     33 C         143.0322  141.3035  165.0978 C.ar    1  UNL1       -0.0003
     34 C         142.9446  139.8772  164.6418 C.ar    1  UNL1       -0.0000
     35 C         142.8454  138.7719  165.6510 C.ar    1  UNL1       -0.0003
     36 C         142.8338  139.0928  167.1162 C.ar    1  UNL1       -0.0029
@<TRIPOS>BOND
     1    28    29    1
     2    29    30    1
     3    30    31    1
     4    31    32   ar
     5    32    33   ar
     6    33    34   ar
     7    34    35   ar
     8    35    36   ar
     9    29    25    1
    10    25    26    2
    11    25    27    2
    12    25    23    1
    13    23     1    1
    14     1     2   ar
    15     2     3   ar
    16     3     4   ar
    17     4     5   ar
    18     5     6   ar
    19     6     7   ar
    20     7     8   ar
    21     8     9   ar
    22     9    10   ar
    23    10    17    1
    24    17    18   ar
    25    18    19   ar
    26    19    20   ar
    27    20    21    1
    28    20    22   ar
    29    10    11   ar
    30    11    12   ar
    31    12    13   ar
    32    13    14    2
    33    13    15   ar
    34    15    16   ar
    35    36    31   ar
    36    16     1   ar
    37    15     4   ar
    38    12     7   ar
    39    22    17   ar
    40    23    24    1
@<TRIPOS>MOLECULE
*****
 36 40 0 0 0
SMALL
GASTEIGER

@<TRIPOS>ATOM
      1 C         140.6522  138.8060  161.4030 C.ar    1  UNL1        0.0659
      2 C         139.4111  137.9654  161.4571 C.ar    1  UNL1        0.0159
      3 C         138.6607  137.8182  162.7475 C.ar    1  UNL1        0.0014
      4 C         139.1514  138.5116  163.9838 C.ar    1  UNL1        0.0032
      5 C         138.2603  138.2340  165.1581 C.ar    1  UNL1        0.0016
      6 C         138.3902  138.7285  166.5683 C.ar    1  UNL1        0.0192
      7 C         139.4434  139.6227  167.1524 C.ar    1  UNL1        0.0844
      8 N         139.2011  139.8744  168.6112 N.ar    1  UNL1       -0.2437
      9 C         140.1421  140.7465  169.3882 C.ar    1  UNL1        0.0989
     10 C         141.3254  141.3671  168.7065 C.ar    1  UNL1        0.0223
     11 C         141.5677  141.1155  167.2478 C.ar    1  UNL1        0.0063
     12 C         140.6267  140.2432  166.4707 C.ar    1  UNL1        0.0566
     13 C         141.0491  140.1229  165.0364 C.ar    1  UNL1        0.1970
     14 O         142.2925  140.8722  164.6591 O.2     1  UNL1       -0.2865
     15 C         140.3925  139.3522  163.9297 C.ar    1  UNL1        0.0403
     16 C         141.1429  139.4994  162.6393 C.ar    1  UNL1        0.0191
     17 C         142.2664  142.2393  169.4836 C.ar    1  UNL1        0.0411
     18 C         141.8745  143.3189  170.4484 C.ar    1  UNL1        0.1217
     19 N         143.1305  143.9318  170.9932 N.ar    1  UNL1       -0.1676
     20 N         144.2986  143.2311  170.3652 N.ar    1  UNL1       -0.2473
     21 C         145.7466  143.5247  170.6246 C.3     1  UNL1        0.1538
     22 C         143.7646  142.1850  169.4321 C.ar    1  UNL1        0.0967
     23 N         141.4027  138.9532  160.1126 N.pl3   1  UNL1       -0.2052
     24 H         141.3137  138.2688  159.4105 H       1  UNL1        0.1748
     25 S         142.2888  140.1432  159.8918 S.O2    1  UNL1        0.1133
     26 O         143.4990  139.2750  160.0694 O.2     1  UNL1       -0.1379
     27 O         141.0786  141.0114  159.7143 O.2     1  UNL1       -0.1379
     28 C         144.2200  141.3008  158.5956 C.3     1  UNL1        0.1167
     29 N         143.1749  141.3332  159.6711 N.3     1  UNL1       -0.1369
     30 C         143.0160  142.5555  160.5259 C.3     1  UNL1        0.1235
     31 C         143.7334  142.6503  161.8398 C.ar    1  UNL1       -0.0044
     32 C         143.3468  143.7078  162.8308 C.ar    1  UNL1       -0.0029
     33 C         144.0642  143.8025  164.1448 C.ar    1  UNL1       -0.0003
     34 C         145.1682  142.8398  164.4676 C.ar    1  UNL1       -0.0000
     35 C         145.5548  141.7823  163.4765 C.ar    1  UNL1       -0.0003
     36 C         144.8375  141.6875  162.1626 C.ar    1  UNL1       -0.0029
@<TRIPOS>BOND
     1    28    29    1
     2    29    30    1
     3    30    31    1
     4    31    32   ar
     5    32    33   ar
     6    33    34   ar
     7    34    35   ar
     8    35    36   ar
     9    29    25    1
    10    25    26    2
    11    25    27    2
    12    25    23    1
    13    23     1    1
    14     1     2   ar
    15     2     3   ar
    16     3     4   ar
    17     4     5   ar
    18     5     6   ar
    19     6     7   ar
    20     7     8   ar
    21     8     9   ar
    22     9    10   ar
    23    10    17    1
    24    17    18   ar
    25    18    19   ar
    26    19    20   ar
    27    20    21    1
    28    20    22   ar
    29    10    11   ar
    30    11    12   ar
    31    12    13   ar
    32    13    14    2
    33    13    15   ar
    34    15    16   ar
    35    36    31   ar
    36    16     1   ar
    37    15     4   ar
    38    12     7   ar
    39    22    17   ar
    40    23    24    1
@<TRIPOS>MOLECULE
*****
 36 40 0 0 0
SMALL
GASTEIGER

@<TRIPOS>ATOM
      1 C         139.6508  142.4820  165.3672 C.ar    1  UNL1        0.0659
      2 C         138.8947  143.7758  165.4330 C.ar    1  UNL1        0.0159
      3 C         138.9806  144.7530  164.2983 C.ar    1  UNL1        0.0014
      4 C         139.8224  144.4364  163.0978 C.ar    1  UNL1        0.0032
      5 C         139.7698  145.5414  162.0847 C.ar    1  UNL1        0.0016
      6 C         140.4601  145.6254  160.7556 C.ar    1  UNL1        0.0192
      7 C         141.3736  144.6251  160.1115 C.ar    1  UNL1        0.0844
      8 N         141.8512  145.1022  158.7720 N.ar    1  UNL1       -0.2437
      9 C         142.7776  144.2481  157.9582 C.ar    1  UNL1        0.0989
     10 C         143.2264  142.9168  158.4839 C.ar    1  UNL1        0.0223
     11 C         142.7488  142.4397  159.8234 C.ar    1  UNL1        0.0063
     12 C         141.8224  143.2939  160.6373 C.ar    1  UNL1        0.0566
     13 C         141.4685  142.6341  161.9371 C.ar    1  UNL1        0.1970
     14 O         142.0864  141.2878  162.1729 O.2     1  UNL1       -0.2865
     15 C         140.5784  143.1426  163.0321 C.ar    1  UNL1        0.0403
     16 C         140.4926  142.1654  164.1668 C.ar    1  UNL1        0.0191
     17 C         144.1528  142.0626  157.6702 C.ar    1  UNL1        0.0411
     18 C         144.0604  140.5750  157.5013 C.ar    1  UNL1        0.1217
     19 N         145.1847  140.1391  156.6092 N.ar    1  UNL1       -0.1676
     20 N         145.9720  141.3572  156.2266 N.ar    1  UNL1       -0.2473
     21 C         147.1842  141.3823  155.3435 C.3     1  UNL1        0.1538
     22 C         145.3342  142.5460  156.8824 C.ar    1  UNL1        0.0967
     23 N         139.5650  141.5046  166.5020 N.pl3   1  UNL1       -0.2052
     24 H         138.6992  141.3301  166.9369 H       1  UNL1        0.1748
     25 S         140.7983  140.7933  166.9740 S.O2    1  UNL1        0.1133
     26 O         141.2368  142.0327  167.6960 O.2     1  UNL1       -0.1379
     27 O         140.3597  139.5538  166.2519 O.2     1  UNL1       -0.1379
     28 C         142.3194  139.9735  168.9142 C.3     1  UNL1        0.1167
     29 N         142.0317  140.0819  167.4460 N.3     1  UNL1       -0.1369
     30 C         142.9773  139.4790  166.4499 C.3     1  UNL1        0.1235
     31 C         143.7226  140.3622  165.4936 C.ar    1  UNL1       -0.0044
     32 C         143.7142  141.8499  165.6846 C.ar    1  UNL1       -0.0029
     33 C         144.4596  142.7331  164.7283 C.ar    1  UNL1       -0.0003
     34 C         145.2132  142.1285  163.5810 C.ar    1  UNL1       -0.0000
     35 C         145.2217  140.6407  163.3900 C.ar    1  UNL1       -0.0003
     36 C         144.4764  139.7576  164.3463 C.ar    1  UNL1       -0.0029
@<TRIPOS>BOND
     1    28    29    1
     2    29    30    1
     3    30    31    1
     4    31    32   ar
     5    32    33   ar
     6    33    34   ar
     7    34    35   ar
     8    35    36   ar
     9    29    25    1
    10    25    26    2
    11    25    27    2
    12    25    23    1
    13    23     1    1
    14     1     2   ar
    15     2     3   ar
    16     3     4   ar
    17     4     5   ar
    18     5     6   ar
    19     6     7   ar
    20     7     8   ar
    21     8     9   ar
    22     9    10   ar
    23    10    17    1
    24    17    18   ar
    25    18    19   ar
    26    19    20   ar
    27    20    21    1
    28    20    22   ar
    29    10    11   ar
    30    11    12   ar
    31    12    13   ar
    32    13    14    2
    33    13    15   ar
    34    15    16   ar
    35    36    31   ar
    36    16     1   ar
    37    15     4   ar
    38    12     7   ar
    39    22    17   ar
    40    23    24    1
@<TRIPOS>MOLECULE
*****
 36 40 0 0 0
SMALL
GASTEIGER

@<TRIPOS>ATOM
      1 C         142.8663  142.1791  160.6525 C.ar    1  UNL1        0.0659
      2 C         142.1312  140.8776  160.5284 C.ar    1  UNL1        0.0159
      3 C         140.9786  140.7550  159.5764 C.ar    1  UNL1        0.0014
      4 C         140.5611  141.9340  158.7483 C.ar    1  UNL1        0.0032
      5 C         139.3941  141.5994  157.8674 C.ar    1  UNL1        0.0016
      6 C         138.6739  142.4836  156.8930 C.ar    1  UNL1        0.0192
      7 C         138.9430  143.9209  156.5589 C.ar    1  UNL1        0.0844
      8 N         137.9841  144.4319  155.5247 N.ar    1  UNL1       -0.2437
      9 C         138.0809  145.8509  155.0483 C.ar    1  UNL1        0.0989
     10 C         139.1365  146.7590  155.6060 C.ar    1  UNL1        0.0223
     11 C         140.0954  146.2480  156.6401 C.ar    1  UNL1        0.0063
     12 C         139.9986  144.8290  157.1166 C.ar    1  UNL1        0.0566
     13 C         141.0460  144.5240  158.1462 C.ar    1  UNL1        0.1970
     14 O         141.9643  145.6573  158.4958 O.2     1  UNL1       -0.2865
     15 C         141.2963  143.2356  158.8724 C.ar    1  UNL1        0.0403
     16 C         142.4488  143.3582  159.8245 C.ar    1  UNL1        0.0191
     17 C         139.2333  148.1781  155.1295 C.ar    1  UNL1        0.0411
     18 C         139.9667  148.6503  153.9092 C.ar    1  UNL1        0.1217
     19 N         139.8003  150.1381  153.8154 N.ar    1  UNL1       -0.1676
     20 N         138.9642  150.5854  154.9776 N.ar    1  UNL1       -0.2473
     21 C         138.5510  151.9963  155.2754 C.3     1  UNL1        0.1538
     22 C         138.6137  149.3740  155.7898 C.ar    1  UNL1        0.0967
     23 N         144.0189  142.3017  161.6046 N.pl3   1  UNL1       -0.2052
     24 H         144.8669  141.8396  161.4131 H       1  UNL1        0.1748
     25 S         143.8796  143.1284  162.8485 S.O2    1  UNL1        0.1133
     26 O         143.2043  141.9793  163.5365 O.2     1  UNL1       -0.1379
     27 O         144.5549  144.2775  162.1604 O.2     1  UNL1       -0.1379
     28 C         144.5014  143.5822  165.3299 C.3     1  UNL1        0.1167
     29 N         143.7402  143.9551  164.0924 N.3     1  UNL1       -0.1369
     30 C         142.8396  145.1546  164.0987 C.3     1  UNL1        0.1235
     31 C         141.3963  145.0108  163.7165 C.ar    1  UNL1       -0.0044
     32 C         140.9101  145.5532  162.4052 C.ar    1  UNL1       -0.0029
     33 C         139.4667  145.4094  162.0230 C.ar    1  UNL1       -0.0003
     34 C         138.5096  144.7232  162.9521 C.ar    1  UNL1       -0.0000
     35 C         138.9959  144.1808  164.2633 C.ar    1  UNL1       -0.0003
     36 C         140.4392  144.3246  164.6456 C.ar    1  UNL1       -0.0029
@<TRIPOS>BOND
     1    28    29    1
     2    29    30    1
     3    30    31    1
     4    31    32   ar
     5    32    33   ar
     6    33    34   ar
     7    34    35   ar
     8    35    36   ar
     9    29    25    1
    10    25    26    2
    11    25    27    2
    12    25    23    1
    13    23     1    1
    14     1     2   ar
    15     2     3   ar
    16     3     4   ar
    17     4     5   ar
    18     5     6   ar
    19     6     7   ar
    20     7     8   ar
    21     8     9   ar
    22     9    10   ar
    23    10    17    1
    24    17    18   ar
    25    18    19   ar
    26    19    20   ar
    27    20    21    1
    28    20    22   ar
    29    10    11   ar
    30    11    12   ar
    31    12    13   ar
    32    13    14    2
    33    13    15   ar
    34    15    16   ar
    35    36    31   ar
    36    16     1   ar
    37    15     4   ar
    38    12     7   ar
    39    22    17   ar
    40    23    24    1
@<TRIPOS>MOLECULE
*****
 36 40 0 0 0
SMALL
GASTEIGER

@<TRIPOS>ATOM
      1 C         141.5382  142.2044  164.7943 C.ar    1  UNL1        0.0659
      2 C         140.9524  143.5651  164.5591 C.ar    1  UNL1        0.0159
      3 C         140.4767  143.9502  163.1897 C.ar    1  UNL1        0.0014
      4 C         140.5867  142.9747  162.0556 C.ar    1  UNL1        0.0032
      5 C         140.0563  143.5566  160.7788 C.ar    1  UNL1        0.0016
      6 C         139.9808  142.9215  159.4219 C.ar    1  UNL1        0.0192
      7 C         140.4169  141.5477  159.0068 C.ar    1  UNL1        0.0844
      8 N         140.1626  141.3094  157.5478 N.ar    1  UNL1       -0.2437
      9 C         140.5276  139.9932  156.9280 C.ar    1  UNL1        0.0989
     10 C         141.1470  138.9152  157.7672 C.ar    1  UNL1        0.0223
     11 C         141.4013  139.1533  159.2261 C.ar    1  UNL1        0.0063
     12 C         141.0363  140.4696  159.8459 C.ar    1  UNL1        0.0566
     13 C         141.3726  140.4991  161.3075 C.ar    1  UNL1        0.1970
     14 O         141.9906  139.2484  161.8585 O.2     1  UNL1       -0.2865
     15 C         141.1724  141.6140  162.2908 C.ar    1  UNL1        0.0403
     16 C         141.6482  141.2289  163.6602 C.ar    1  UNL1        0.0191
     17 C         141.5120  137.5988  157.1474 C.ar    1  UNL1        0.0411
     18 C         140.7091  136.8540  156.1224 C.ar    1  UNL1        0.1217
     19 N         141.4450  135.5912  155.7854 N.ar    1  UNL1       -0.1676
     20 N         142.7027  135.5554  156.6020 N.ar    1  UNL1       -0.2473
     21 C         143.7374  134.4695  156.5807 C.3     1  UNL1        0.1538
     22 C         142.7441  136.7962  157.4438 C.ar    1  UNL1        0.0967
     23 N         142.0140  141.8192  166.1638 N.pl3   1  UNL1       -0.2052
     24 H         142.8965  142.1192  166.4807 H       1  UNL1        0.1748
     25 S         141.1452  140.9771  167.0503 S.O2    1  UNL1        0.1133
     26 O         141.9920  139.7782  166.7412 O.2     1  UNL1       -0.1379
     27 O         140.2984  142.1760  167.3594 O.2     1  UNL1       -0.1379
     28 C         140.6826  139.8751  169.3572 C.3     1  UNL1        0.1167
     29 N         140.2764  140.1348  167.9368 N.3     1  UNL1       -0.1369
     30 C         139.0014  139.5523  167.4029 C.3     1  UNL1        0.1235
     31 C         138.8076  139.4017  165.9232 C.ar    1  UNL1       -0.0044
     32 C         138.1926  140.5164  165.1300 C.ar    1  UNL1       -0.0029
     33 C         137.9988  140.3657  163.6501 C.ar    1  UNL1       -0.0003
     34 C         138.4199  139.1003  162.9636 C.ar    1  UNL1       -0.0000
     35 C         139.0348  137.9856  163.7568 C.ar    1  UNL1       -0.0003
     36 C         139.2287  138.1362  165.2365 C.ar    1  UNL1       -0.0029
@<TRIPOS>BOND
     1    28    29    1
     2    29    30    1
     3    30    31    1
     4    31    32   ar
     5    32    33   ar
     6    33    34   ar
     7    34    35   ar
     8    35    36   ar
     9    29    25    1
    10    25    26    2
    11    25    27    2
    12    25    23    1
    13    23     1    1
    14     1     2   ar
    15     2     3   ar
    16     3     4   ar
    17     4     5   ar
    18     5     6   ar
    19     6     7   ar
    20     7     8   ar
    21     8     9   ar
    22     9    10   ar
    23    10    17    1
    24    17    18   ar
    25    18    19   ar
    26    19    20   ar
    27    20    21    1
    28    20    22   ar
    29    10    11   ar
    30    11    12   ar
    31    12    13   ar
    32    13    14    2
    33    13    15   ar
    34    15    16   ar
    35    36    31   ar
    36    16     1   ar
    37    15     4   ar
    38    12     7   ar
    39    22    17   ar
    40    23    24    1
@<TRIPOS>MOLECULE
*****
 36 40 0 0 0
SMALL
GASTEIGER

@<TRIPOS>ATOM
      1 C         140.8612  141.8717  162.7513 C.ar    1  UNL1        0.0659
      2 C         141.6859  143.0939  162.4756 C.ar    1  UNL1        0.0159
      3 C         142.5874  143.1357  161.2774 C.ar    1  UNL1        0.0014
      4 C         142.6641  141.9554  160.3550 C.ar    1  UNL1        0.0032
      5 C         143.6198  142.2035  159.2259 C.ar    1  UNL1        0.0016
      6 C         143.9869  141.2907  158.0935 C.ar    1  UNL1        0.0192
      7 C         143.4889  139.9044  157.8108 C.ar    1  UNL1        0.0844
      8 N         144.1137  139.3402  156.5692 N.ar    1  UNL1       -0.2437
      9 C         143.7504  137.9602  156.1074 C.ar    1  UNL1        0.0989
     10 C         142.7623  137.1442  156.8870 C.ar    1  UNL1        0.0223
     11 C         142.1375  137.7083  158.1285 C.ar    1  UNL1        0.0063
     12 C         142.5008  139.0884  158.5904 C.ar    1  UNL1        0.0566
     13 C         141.7666  139.4573  159.8454 C.ar    1  UNL1        0.1970
     14 O         140.8369  138.4120  160.3866 O.2     1  UNL1       -0.2865
     15 C         141.8393  140.7332  160.6307 C.ar    1  UNL1        0.0403
     16 C         140.9379  140.6914  161.8289 C.ar    1  UNL1        0.0191
     17 C         142.3990  135.7640  156.4251 C.ar    1  UNL1        0.0411
     18 C         141.3263  135.4195  155.4349 C.ar    1  UNL1        0.1217
     19 N         141.3089  133.9287  155.2703 N.ar    1  UNL1       -0.1676
     20 N         142.3709  133.3518  156.1588 N.ar    1  UNL1       -0.2473
     21 C         142.7012  131.8962  156.3075 C.3     1  UNL1        0.1538
     22 C         143.0445  134.4861  156.8725 C.ar    1  UNL1        0.0967
     23 N         139.9597  141.8299  163.9495 N.pl3   1  UNL1       -0.2052
     24 H         138.9962  142.0039  163.8469 H       1  UNL1        0.1748
     25 S         140.5263  141.5228  165.3040 S.O2    1  UNL1        0.1133
     26 O         140.4303  140.0548  165.0114 O.2     1  UNL1       -0.1379
     27 O         140.6222  142.9908  165.5966 O.2     1  UNL1       -0.1379
     28 C         140.1739  140.9895  167.8222 C.3     1  UNL1        0.1167
     29 N         141.0929  141.2157  166.6585 N.3     1  UNL1       -0.1369
     30 C         142.5785  141.1350  166.8493 C.3     1  UNL1        0.1235
     31 C         143.4942  141.2592  165.6678 C.ar    1  UNL1       -0.0044
     32 C         143.8365  140.0468  164.8535 C.ar    1  UNL1       -0.0029
     33 C         144.7522  140.1711  163.6719 C.ar    1  UNL1       -0.0003
     34 C         145.3257  141.5076  163.3048 C.ar    1  UNL1       -0.0000
     35 C         144.9835  142.7199  164.1192 C.ar    1  UNL1       -0.0003
     36 C         144.0677  142.5957  165.3007 C.ar    1  UNL1       -0.0029
@<TRIPOS>BOND
     1    28    29    1
     2    29    30    1
     3    30    31    1
     4    31    32   ar
     5    32    33   ar
     6    33    34   ar
     7    34    35   ar
     8    35    36   ar
     9    29    25    1
    10    25    26    2
    11    25    27    2
    12    25    23    1
    13    23     1    1
    14     1     2   ar
    15     2     3   ar
    16     3     4   ar
    17     4     5   ar
    18     5     6   ar
    19     6     7   ar
    20     7     8   ar
    21     8     9   ar
    22     9    10   ar
    23    10    17    1
    24    17    18   ar
    25    18    19   ar
    26    19    20   ar
    27    20    21    1
    28    20    22   ar
    29    10    11   ar
    30    11    12   ar
    31    12    13   ar
    32    13    14    2
    33    13    15   ar
    34    15    16   ar
    35    36    31   ar
    36    16     1   ar
    37    15     4   ar
    38    12     7   ar
    39    22    17   ar
    40    23    24    1
@<TRIPOS>MOLECULE
*****
 36 40 0 0 0
SMALL
GASTEIGER

@<TRIPOS>ATOM
      1 C         141.0952  142.5335  163.9813 C.ar    1  UNL1        0.0659
      2 C         139.6674  142.9931  163.9928 C.ar    1  UNL1        0.0159
      3 C         138.7230  142.5335  162.9219 C.ar    1  UNL1        0.0014
      4 C         139.2064  141.6144  161.8396 C.ar    1  UNL1        0.0032
      5 C         138.1081  141.2786  160.8748 C.ar    1  UNL1        0.0016
      6 C         138.1662  140.4003  159.6601 C.ar    1  UNL1        0.0192
      7 C         139.3372  139.6409  159.1104 C.ar    1  UNL1        0.0844
      8 N         138.9650  138.8814  157.8715 N.ar    1  UNL1       -0.2437
      9 C         139.9948  138.0534  157.1617 C.ar    1  UNL1        0.0989
     10 C         141.3967  137.9847  157.6908 C.ar    1  UNL1        0.0223
     11 C         141.7689  138.7441  158.9296 C.ar    1  UNL1        0.0063
     12 C         140.7391  139.5722  159.6395 C.ar    1  UNL1        0.0566
     13 C         141.3163  140.2460  160.8490 C.ar    1  UNL1        0.1970
     14 O         142.7676  139.9751  161.1144 O.2     1  UNL1       -0.2865
     15 C         140.6342  141.1548  161.8281 C.ar    1  UNL1        0.0403
     16 C         141.5786  141.6144  162.8989 C.ar    1  UNL1        0.0191
     17 C         142.4266  137.1566  156.9810 C.ar    1  UNL1        0.0411
     18 C         143.5422  137.6800  156.1257 C.ar    1  UNL1        0.1217
     19 N         144.3266  136.5066  155.6181 N.ar    1  UNL1       -0.1676
     20 N         143.6958  135.2580  156.1595 N.ar    1  UNL1       -0.2473
     21 C         144.1581  133.8541  155.9036 C.3     1  UNL1        0.1538
     22 C         142.5215  135.6598  157.0019 C.ar    1  UNL1        0.0967
     23 N         142.0397  142.9931  165.0523 N.pl3   1  UNL1       -0.2052
     24 H         142.4892  143.8652  164.9710 H       1  UNL1        0.1748
     25 S         142.2992  142.1240  166.2469 S.O2    1  UNL1        0.1133
     26 O         143.5904  141.6680  165.6346 O.2     1  UNL1       -0.1379
     27 O         141.0080  142.5800  166.8591 O.2     1  UNL1       -0.1379
     28 C         143.0489  141.8654  168.7210 C.3     1  UNL1        0.1167
     29 N         142.5588  141.2548  167.4416 N.3     1  UNL1       -0.1369
     30 C         142.3282  139.7751  167.3568 C.3     1  UNL1        0.1235
     31 C         141.6168  139.1936  166.1712 C.ar    1  UNL1       -0.0044
     32 C         142.3878  138.4359  165.1313 C.ar    1  UNL1       -0.0029
     33 C         141.6762  137.8545  163.9456 C.ar    1  UNL1       -0.0003
     34 C         140.1938  138.0308  163.7998 C.ar    1  UNL1       -0.0000
     35 C         139.4228  138.7885  164.8397 C.ar    1  UNL1       -0.0003
     36 C         140.1343  139.3700  166.0254 C.ar    1  UNL1       -0.0029
@<TRIPOS>BOND
     1    28    29    1
     2    29    30    1
     3    30    31    1
     4    31    32   ar
     5    32    33   ar
     6    33    34   ar
     7    34    35   ar
     8    35    36   ar
     9    29    25    1
    10    25    26    2
    11    25    27    2
    12    25    23    1
    13    23     1    1
    14     1     2   ar
    15     2     3   ar
    16     3     4   ar
    17     4     5   ar
    18     5     6   ar
    19     6     7   ar
    20     7     8   ar
    21     8     9   ar
    22     9    10   ar
    23    10    17    1
    24    17    18   ar
    25    18    19   ar
    26    19    20   ar
    27    20    21    1
    28    20    22   ar
    29    10    11   ar
    30    11    12   ar
    31    12    13   ar
    32    13    14    2
    33    13    15   ar
    34    15    16   ar
    35    36    31   ar
    36    16     1   ar
    37    15     4   ar
    38    12     7   ar
    39    22    17   ar
    40    23    24    1
@<TRIPOS>MOLECULE
*****
 36 40 0 0 0
SMALL
GASTEIGER

@<TRIPOS>ATOM
      1 C         139.9982  143.1735  160.0833 C.ar    1  UNL1        0.0659
      2 C         141.0311  144.2287  159.8201 C.ar    1  UNL1        0.0159
      3 C         142.2426  143.9037  158.9975 C.ar    1  UNL1        0.0014
      4 C         142.4210  142.5234  158.4381 C.ar    1  UNL1        0.0032
      5 C         143.6925  142.4115  157.6501 C.ar    1  UNL1        0.0016
      6 C         144.2450  141.2168  156.9308 C.ar    1  UNL1        0.0192
      7 C         143.6625  139.8389  156.8218 C.ar    1  UNL1        0.0844
      8 N         144.5399  138.9359  156.0064 N.ar    1  UNL1       -0.2437
      9 C         144.1384  137.5094  155.7744 C.ar    1  UNL1        0.0989
     10 C         142.8595  136.9858  156.3578 C.ar    1  UNL1        0.0223
     11 C         141.9821  137.8888  157.1731 C.ar    1  UNL1        0.0063
     12 C         142.3836  139.3153  157.4051 C.ar    1  UNL1        0.0566
     13 C         141.3713  140.0404  158.2416 C.ar    1  UNL1        0.1970
     14 O         140.1857  139.2307  158.6758 O.2     1  UNL1       -0.2865
     15 C         141.3880  141.4681  158.7013 C.ar    1  UNL1        0.0403
     16 C         140.1766  141.7932  159.5239 C.ar    1  UNL1        0.0191
     17 C         142.4580  135.5592  156.1258 C.ar    1  UNL1        0.0411
     18 C         141.3551  135.0892  155.2244 C.ar    1  UNL1        0.1217
     19 N         141.3044  133.5918  155.2961 N.ar    1  UNL1       -0.1676
     20 N         142.3760  133.1363  156.2418 N.ar    1  UNL1       -0.2473
     21 C         142.6811  131.7146  156.6101 C.3     1  UNL1        0.1538
     22 C         143.0889  134.3524  156.7546 C.ar    1  UNL1        0.0967
     23 N         138.7866  143.4985  160.9059 N.pl3   1  UNL1       -0.2052
     24 H         137.9115  143.6124  160.4697 H       1  UNL1        0.1748
     25 S         138.9086  143.6499  162.3933 S.O2    1  UNL1        0.1133
     26 O         138.9567  145.1410  162.2375 O.2     1  UNL1       -0.1379
     27 O         138.8604  142.1588  162.5490 O.2     1  UNL1       -0.1379
     28 C         137.8779  144.3376  164.6769 C.3     1  UNL1        0.1167
     29 N         139.0305  143.8014  163.8807 N.3     1  UNL1       -0.1369
     30 C         140.3050  143.4166  164.5717 C.3     1  UNL1        0.1235
     31 C         141.6202  143.5945  163.8730 C.ar    1  UNL1       -0.0044
     32 C         142.3146  144.9236  163.9085 C.ar    1  UNL1       -0.0029
     33 C         143.6300  145.1015  163.2097 C.ar    1  UNL1       -0.0003
     34 C         144.2509  143.9504  162.4754 C.ar    1  UNL1       -0.0000
     35 C         143.5565  142.6212  162.4399 C.ar    1  UNL1       -0.0003
     36 C         142.2412  142.4433  163.1386 C.ar    1  UNL1       -0.0029
@<TRIPOS>BOND
     1    28    29    1
     2    29    30    1
     3    30    31    1
     4    31    32   ar
     5    32    33   ar
     6    33    34   ar
     7    34    35   ar
     8    35    36   ar
     9    29    25    1
    10    25    26    2
    11    25    27    2
    12    25    23    1
    13    23     1    1
    14     1     2   ar
    15     2     3   ar
    16     3     4   ar
    17     4     5   ar
    18     5     6   ar
    19     6     7   ar
    20     7     8   ar
    21     8     9   ar
    22     9    10   ar
    23    10    17    1
    24    17    18   ar
    25    18    19   ar
    26    19    20   ar
    27    20    21    1
    28    20    22   ar
    29    10    11   ar
    30    11    12   ar
    31    12    13   ar
    32    13    14    2
    33    13    15   ar
    34    15    16   ar
    35    36    31   ar
    36    16     1   ar
    37    15     4   ar
    38    12     7   ar
    39    22    17   ar
    40    23    24    1
@<TRIPOS>MOLECULE
*****
 36 40 0 0 0
SMALL
GASTEIGER

@<TRIPOS>ATOM
      1 C         139.6461  142.7924  159.7660 C.ar    1  UNL1        0.0659
      2 C         140.5363  143.9104  159.3107 C.ar    1  UNL1        0.0159
      3 C         141.7156  143.6192  158.4307 C.ar    1  UNL1        0.0014
      4 C         142.0045  142.2099  158.0059 C.ar    1  UNL1        0.0032
      5 C         143.2224  142.1394  157.1331 C.ar    1  UNL1        0.0016
      6 C         143.8507  140.9334  156.4999 C.ar    1  UNL1        0.0192
      7 C         143.4164  139.5002  156.5833 C.ar    1  UNL1        0.0844
      8 N         144.3283  138.6047  155.7980 N.ar    1  UNL1       -0.2437
      9 C         144.0702  137.1279  155.7498 C.ar    1  UNL1        0.0989
     10 C         142.9003  136.5465  156.4869 C.ar    1  UNL1        0.0223
     11 C         141.9884  137.4419  157.2722 C.ar    1  UNL1        0.0063
     12 C         142.2465  138.9188  157.3204 C.ar    1  UNL1        0.0566
     13 C         141.2219  139.6272  158.1562 C.ar    1  UNL1        0.1970
     14 O         140.1654  138.7556  158.7677 O.2     1  UNL1       -0.2865
     15 C         141.1143  141.0919  158.4612 C.ar    1  UNL1        0.0403
     16 C         139.9351  141.3831  159.3413 C.ar    1  UNL1        0.0191
     17 C         142.6422  135.0696  156.4388 C.ar    1  UNL1        0.0411
     18 C         143.2282  134.0416  157.3606 C.ar    1  UNL1        0.1217
     19 N         142.7009  132.6982  156.9519 N.ar    1  UNL1       -0.1676
     20 N         141.7889  132.8958  155.7774 N.ar    1  UNL1       -0.2473
     21 C         141.0441  131.8173  155.0481 C.3     1  UNL1        0.1538
     22 C         141.7527  134.3615  155.4603 C.ar    1  UNL1        0.0967
     23 N         138.4668  143.0836  160.6462 N.pl3   1  UNL1       -0.2052
     24 H         137.7940  143.7449  160.3648 H       1  UNL1        0.1748
     25 S         138.3126  142.3672  161.9549 S.O2    1  UNL1        0.1133
     26 O         139.2715  143.3277  162.5936 O.2     1  UNL1       -0.1379
     27 O         137.3538  141.4067  161.3162 O.2     1  UNL1       -0.1379
     28 C         138.3371  142.3969  164.5528 C.3     1  UNL1        0.1167
     29 N         138.1585  141.6508  163.2638 N.3     1  UNL1       -0.1369
     30 C         137.8257  140.1883  163.2837 C.3     1  UNL1        0.1235
     31 C         138.9218  139.1713  163.4030 C.ar    1  UNL1       -0.0044
     32 C         139.0683  138.3708  164.6630 C.ar    1  UNL1       -0.0029
     33 C         140.1645  137.3538  164.7823 C.ar    1  UNL1       -0.0003
     34 C         141.1141  137.1374  163.6416 C.ar    1  UNL1       -0.0000
     35 C         140.9677  137.9379  162.3815 C.ar    1  UNL1       -0.0003
     36 C         139.8716  138.9548  162.2622 C.ar    1  UNL1       -0.0029
@<TRIPOS>BOND
     1    28    29    1
     2    29    30    1
     3    30    31    1
     4    31    32   ar
     5    32    33   ar
     6    33    34   ar
     7    34    35   ar
     8    35    36   ar
     9    29    25    1
    10    25    26    2
    11    25    27    2
    12    25    23    1
    13    23     1    1
    14     1     2   ar
    15     2     3   ar
    16     3     4   ar
    17     4     5   ar
    18     5     6   ar
    19     6     7   ar
    20     7     8   ar
    21     8     9   ar
    22     9    10   ar
    23    10    17    1
    24    17    18   ar
    25    18    19   ar
    26    19    20   ar
    27    20    21    1
    28    20    22   ar
    29    10    11   ar
    30    11    12   ar
    31    12    13   ar
    32    13    14    2
    33    13    15   ar
    34    15    16   ar
    35    36    31   ar
    36    16     1   ar
    37    15     4   ar
    38    12     7   ar
    39    22    17   ar
    40    23    24    1
