@<TRIPOS>MOLECULE
*****
 29 32 0 0 0
SMALL
GASTEIGER

@<TRIPOS>ATOM
      1 C         142.4711  138.2814  162.5351 C.3     1  UNL1        0.0642
      2 C         142.7793  137.8314  161.1377 C.3     1  UNL1        0.0178
      3 C         143.6225  138.8875  161.7887 C.3     1  UNL1        0.0178
      4 N         142.5753  139.0324  163.8294 N.3     1  UNL1       -0.2712
      5 C         142.5298  140.5317  163.8323 C.3     1  UNL1        0.0897
      6 C         142.6340  141.2826  165.1265 C.3     1  UNL1        0.0899
      7 N         142.7837  140.5343  166.4179 N.3     1  UNL1       -0.2665
      8 C         142.8293  139.0350  166.4150 C.3     1  UNL1        0.0899
      9 C         142.7251  138.2841  165.1207 C.3     1  UNL1        0.0897
     10 C         142.8879  141.2853  167.7122 C.3     1  UNL1        0.0992
     11 C         141.6750  141.4612  168.5770 C.ar    1  UNL1       -0.0061
     12 C         140.7507  140.3044  168.8167 C.ar    1  UNL1       -0.0029
     13 C         139.5377  140.4803  169.6815 C.ar    1  UNL1       -0.0003
     14 C         139.2492  141.8128  170.3068 C.ar    1  UNL1       -0.0000
     15 C         140.1736  142.9696  170.0672 C.ar    1  UNL1       -0.0003
     16 C         141.3865  142.7938  169.2023 C.ar    1  UNL1       -0.0029
     17 C         141.2836  137.4145  162.8319 C.3     1  UNL1        0.1128
     18 C         139.2013  138.3113  161.5631 C.2     1  UNL1        0.2294
     19 O         139.8724  138.0176  160.2541 O.2     1  UNL1       -0.2745
     20 N         139.9068  138.0097  162.8520 N.am    1  UNL1       -0.2553
     21 C         139.2357  138.3034  164.1609 C.ar    1  UNL1        0.0814
     22 C         138.7698  137.1764  165.0344 C.ar    1  UNL1        0.0172
     23 C         138.0986  137.4702  166.3433 C.ar    1  UNL1        0.0014
     24 C         137.8933  138.8908  166.7787 C.ar    1  UNL1        0.0024
     25 C         138.3592  140.0177  165.9053 C.ar    1  UNL1        0.0309
     26 C         139.0304  139.7240  164.5963 C.ar    1  UNL1        0.1537
     27 F         139.4962  140.8510  163.7229 F       1  UNL1       -0.2029
     28 C         137.5997  140.2940  161.0595 C.3     1  UNL1        0.0101
     29 C         137.8246  138.9065  161.5831 C.3     1  UNL1        0.0856
@<TRIPOS>BOND
     1    28    29    1
     2    29    18    1
     3    18    19    2
     4    18    20   am
     5    20    17    1
     6    17     1    1
     7     1     4    1
     8     4     5    1
     9     5     6    1
    10     6     7    1
    11     7    10    1
    12    10    11    1
    13    11    12   ar
    14    12    13   ar
    15    13    14   ar
    16    14    15   ar
    17    15    16   ar
    18     7     8    1
    19     8     9    1
    20     1     2    1
    21     2     3    1
    22    20    21    1
    23    21    22   ar
    24    22    23   ar
    25    23    24   ar
    26    24    25   ar
    27    25    26   ar
    28    26    27    1
    29     3     1    1
    30    26    21   ar
    31     9     4    1
    32    16    11   ar
@<TRIPOS>MOLECULE
*****
 29 32 0 0 0
SMALL
GASTEIGER

@<TRIPOS>ATOM
      1 C         139.5471  139.3061  162.4964 C.3     1  UNL1        0.0642
      2 C         139.1053  138.7844  161.1613 C.3     1  UNL1        0.0178
      3 C         138.5374  138.1994  162.4205 C.3     1  UNL1        0.0178
      4 N         139.6508  139.4624  163.9847 N.3     1  UNL1       -0.2712
      5 C         140.9823  139.7351  164.6193 C.3     1  UNL1        0.0897
      6 C         141.0859  139.8914  166.1075 C.3     1  UNL1        0.0899
      7 N         139.8580  139.7750  166.9611 N.3     1  UNL1       -0.2665
      8 C         138.5265  139.5023  166.3266 C.3     1  UNL1        0.0899
      9 C         138.4229  139.3460  164.8384 C.3     1  UNL1        0.0897
     10 C         139.9616  139.9313  168.4494 C.3     1  UNL1        0.0992
     11 C         140.8977  140.9476  169.0334 C.ar    1  UNL1       -0.0061
     12 C         140.4211  142.3467  169.2890 C.ar    1  UNL1       -0.0029
     13 C         141.3572  143.3630  169.8730 C.ar    1  UNL1       -0.0003
     14 C         142.7698  142.9801  170.2014 C.ar    1  UNL1       -0.0000
     15 C         143.2464  141.5809  169.9459 C.ar    1  UNL1       -0.0003
     16 C         142.3103  140.5647  169.3619 C.ar    1  UNL1       -0.0029
     17 C         140.5207  140.3586  162.0557 C.3     1  UNL1        0.1128
     18 C         139.9959  142.1517  160.2502 C.2     1  UNL1        0.2294
     19 O         140.4526  141.2065  159.1787 O.2     1  UNL1       -0.2745
     20 N         140.0300  141.7278  161.6887 N.am    1  UNL1       -0.2553
     21 C         139.5732  142.6729  162.7601 C.ar    1  UNL1        0.0814
     22 C         140.5459  143.6338  163.3771 C.ar    1  UNL1        0.0172
     23 C         140.0891  144.5790  164.4486 C.ar    1  UNL1        0.0014
     24 C         138.6597  144.5633  164.9030 C.ar    1  UNL1        0.0024
     25 C         137.6871  143.6026  164.2860 C.ar    1  UNL1        0.0309
     26 C         138.1438  142.6573  163.2145 C.ar    1  UNL1        0.1537
     27 F         137.1711  141.6966  162.5975 F       1  UNL1       -0.2029
     28 C         140.4813  144.5804  159.4654 C.3     1  UNL1        0.0101
     29 C         139.5052  143.5208  159.8832 C.3     1  UNL1        0.0856
@<TRIPOS>BOND
     1    28    29    1
     2    29    18    1
     3    18    19    2
     4    18    20   am
     5    20    17    1
     6    17     1    1
     7     1     4    1
     8     4     5    1
     9     5     6    1
    10     6     7    1
    11     7    10    1
    12    10    11    1
    13    11    12   ar
    14    12    13   ar
    15    13    14   ar
    16    14    15   ar
    17    15    16   ar
    18     7     8    1
    19     8     9    1
    20     1     2    1
    21     2     3    1
    22    20    21    1
    23    21    22   ar
    24    22    23   ar
    25    23    24   ar
    26    24    25   ar
    27    25    26   ar
    28    26    27    1
    29     3     1    1
    30    26    21   ar
    31     9     4    1
    32    16    11   ar
@<TRIPOS>MOLECULE
*****
 29 32 0 0 0
SMALL
GASTEIGER

@<TRIPOS>ATOM
      1 C         139.1307  140.0079  166.2157 C.3     1  UNL1        0.0642
      2 C         138.9576  139.7771  167.6876 C.3     1  UNL1        0.0178
      3 C         138.4275  138.7762  166.7040 C.3     1  UNL1        0.0178
      4 N         139.0499  139.7841  164.7346 N.3     1  UNL1       -0.2712
      5 C         138.7949  138.4072  164.1970 C.3     1  UNL1        0.0897
      6 C         138.7141  138.1834  162.7160 C.3     1  UNL1        0.0899
      7 N         138.8883  139.3365  161.7726 N.3     1  UNL1       -0.2665
      8 C         139.1433  140.7134  162.3102 C.3     1  UNL1        0.0899
      9 C         139.2241  140.9372  163.7912 C.3     1  UNL1        0.0897
     10 C         138.8075  139.1127  160.2916 C.3     1  UNL1        0.0992
     11 C         140.0193  138.6554  159.5350 C.ar    1  UNL1       -0.0061
     12 C         141.3392  138.5318  160.2367 C.ar    1  UNL1       -0.0029
     13 C         142.5510  138.0744  159.4801 C.ar    1  UNL1       -0.0003
     14 C         142.4428  137.7408  158.0217 C.ar    1  UNL1       -0.0000
     15 C         141.1229  137.8644  157.3199 C.ar    1  UNL1       -0.0003
     16 C         139.9111  138.3217  158.0765 C.ar    1  UNL1       -0.0029
     17 C         139.8619  141.3174  166.2415 C.3     1  UNL1        0.1128
     18 C         141.5443  142.2619  167.9816 C.2     1  UNL1        0.2294
     19 O         140.4438  143.0643  168.6101 O.2     1  UNL1       -0.2745
     20 N         141.2534  141.3884  166.7973 N.am    1  UNL1       -0.2553
     21 C         142.3539  140.5861  166.1689 C.ar    1  UNL1        0.0814
     22 C         142.6412  139.1966  166.6557 C.ar    1  UNL1        0.0172
     23 C         143.7418  138.3942  166.0272 C.ar    1  UNL1        0.0014
     24 C         144.5550  138.9813  164.9119 C.ar    1  UNL1        0.0024
     25 C         144.2678  140.3707  164.4251 C.ar    1  UNL1        0.0309
     26 C         143.1672  141.1731  165.0535 C.ar    1  UNL1        0.1537
     27 F         142.8800  142.5625  164.5667 F       1  UNL1       -0.2029
     28 C         143.2891  141.5632  169.7753 C.3     1  UNL1        0.0101
     29 C         142.9357  142.3330  168.5373 C.3     1  UNL1        0.0856
@<TRIPOS>BOND
     1    28    29    1
     2    29    18    1
     3    18    19    2
     4    18    20   am
     5    20    17    1
     6    17     1    1
     7     1     4    1
     8     4     5    1
     9     5     6    1
    10     6     7    1
    11     7    10    1
    12    10    11    1
    13    11    12   ar
    14    12    13   ar
    15    13    14   ar
    16    14    15   ar
    17    15    16   ar
    18     7     8    1
    19     8     9    1
    20     1     2    1
    21     2     3    1
    22    20    21    1
    23    21    22   ar
    24    22    23   ar
    25    23    24   ar
    26    24    25   ar
    27    25    26   ar
    28    26    27    1
    29     3     1    1
    30    26    21   ar
    31     9     4    1
    32    16    11   ar
@<TRIPOS>MOLECULE
*****
 29 32 0 0 0
SMALL
GASTEIGER

@<TRIPOS>ATOM
      1 C         138.3216  138.5147  165.8314 C.3     1  UNL1        0.0642
      2 C         137.4888  138.1442  167.0226 C.3     1  UNL1        0.0178
      3 C         138.1327  137.0717  166.1948 C.3     1  UNL1        0.0178
      4 N         139.1941  138.3663  164.6202 N.3     1  UNL1       -0.2712
      5 C         138.8977  139.1576  163.3809 C.3     1  UNL1        0.0897
      6 C         139.7702  139.0091  162.1698 C.3     1  UNL1        0.0899
      7 N         140.9390  138.0693  162.1980 N.3     1  UNL1       -0.2665
      8 C         141.2353  137.2781  163.4374 C.3     1  UNL1        0.0899
      9 C         140.3629  137.4265  164.6485 C.3     1  UNL1        0.0897
     10 C         141.8114  137.9209  160.9869 C.3     1  UNL1        0.0992
     11 C         142.5405  139.1110  160.4373 C.ar    1  UNL1       -0.0061
     12 C         142.5436  139.3724  158.9603 C.ar    1  UNL1       -0.0029
     13 C         143.2728  140.5625  158.4108 C.ar    1  UNL1       -0.0003
     14 C         143.9988  141.4912  159.3383 C.ar    1  UNL1       -0.0000
     15 C         143.9958  141.2298  160.8153 C.ar    1  UNL1       -0.0003
     16 C         143.2666  140.0397  161.3649 C.ar    1  UNL1       -0.0029
     17 C         138.2076  140.0093  165.8885 C.3     1  UNL1        0.1128
     18 C         139.6696  142.1347  165.5799 C.2     1  UNL1        0.2294
     19 O         138.7572  142.6036  164.4856 O.2     1  UNL1       -0.2745
     20 N         139.3949  140.8376  166.2814 N.am    1  UNL1       -0.2553
     21 C         140.3073  140.3688  167.3757 C.ar    1  UNL1        0.0814
     22 C         139.8394  140.3847  168.8008 C.ar    1  UNL1        0.0172
     23 C         140.7520  139.9159  169.8951 C.ar    1  UNL1        0.0014
     24 C         142.1324  139.4311  169.5643 C.ar    1  UNL1        0.0024
     25 C         142.6003  139.4152  168.1394 C.ar    1  UNL1        0.0309
     26 C         141.6878  139.8840  167.0450 C.ar    1  UNL1        0.1537
     27 F         142.1557  139.8681  165.6200 F       1  UNL1       -0.2029
     28 C         141.9673  143.1951  164.9914 C.3     1  UNL1        0.0101
     29 C         140.8569  142.9630  165.9728 C.3     1  UNL1        0.0856
@<TRIPOS>BOND
     1    28    29    1
     2    29    18    1
     3    18    19    2
     4    18    20   am
     5    20    17    1
     6    17     1    1
     7     1     4    1
     8     4     5    1
     9     5     6    1
    10     6     7    1
    11     7    10    1
    12    10    11    1
    13    11    12   ar
    14    12    13   ar
    15    13    14   ar
    16    14    15   ar
    17    15    16   ar
    18     7     8    1
    19     8     9    1
    20     1     2    1
    21     2     3    1
    22    20    21    1
    23    21    22   ar
    24    22    23   ar
    25    23    24   ar
    26    24    25   ar
    27    25    26   ar
    28    26    27    1
    29     3     1    1
    30    26    21   ar
    31     9     4    1
    32    16    11   ar
@<TRIPOS>MOLECULE
*****
 29 32 0 0 0
SMALL
GASTEIGER

@<TRIPOS>ATOM
      1 C         141.8494  140.8399  161.8566 C.3     1  UNL1        0.0642
      2 C         141.4558  140.7482  160.4121 C.3     1  UNL1        0.0178
      3 C         141.2776  139.5634  161.3147 C.3     1  UNL1        0.0178
      4 N         142.0712  140.4401  163.2853 N.3     1  UNL1       -0.2712
      5 C         143.4545  140.1181  163.7679 C.3     1  UNL1        0.0897
      6 C         143.6762  139.7184  165.1965 C.3     1  UNL1        0.0899
      7 N         142.5147  139.6405  166.1425 N.3     1  UNL1       -0.2665
      8 C         141.1315  139.9625  165.6599 C.3     1  UNL1        0.0899
      9 C         140.9098  140.3623  164.2313 C.3     1  UNL1        0.0897
     10 C         142.7365  139.2407  167.5712 C.3     1  UNL1        0.0992
     11 C         142.5102  140.2343  168.6718 C.ar    1  UNL1       -0.0061
     12 C         142.9137  141.6668  168.4838 C.ar    1  UNL1       -0.0029
     13 C         142.6873  142.6604  169.5846 C.ar    1  UNL1       -0.0003
     14 C         142.0575  142.2216  170.8732 C.ar    1  UNL1       -0.0000
     15 C         141.6540  140.7891  171.0613 C.ar    1  UNL1       -0.0003
     16 C         141.8804  139.7955  169.9606 C.ar    1  UNL1       -0.0029
     17 C         142.3442  142.2552  161.9025 C.3     1  UNL1        0.1128
     18 C         141.6169  144.2833  160.4507 C.2     1  UNL1        0.2294
     19 O         142.7793  144.0437  159.5335 O.2     1  UNL1       -0.2745
     20 N         141.3993  143.3891  161.6352 N.am    1  UNL1       -0.2553
     21 C         140.2368  143.6287  162.5523 C.ar    1  UNL1        0.0814
     22 C         138.9107  142.9889  162.2653 C.ar    1  UNL1        0.0172
     23 C         137.7482  143.2286  163.1825 C.ar    1  UNL1        0.0014
     24 C         137.9118  144.1080  164.3866 C.ar    1  UNL1        0.0024
     25 C         139.2378  144.7477  164.6735 C.ar    1  UNL1        0.0309
     26 C         140.4003  144.5081  163.7564 C.ar    1  UNL1        0.1537
     27 F         141.7263  145.1479  164.0434 F       1  UNL1       -0.2029
     28 C         140.2140  145.6974  158.7827 C.3     1  UNL1        0.0101
     29 C         140.6719  145.4171  160.1833 C.3     1  UNL1        0.0856
@<TRIPOS>BOND
     1    28    29    1
     2    29    18    1
     3    18    19    2
     4    18    20   am
     5    20    17    1
     6    17     1    1
     7     1     4    1
     8     4     5    1
     9     5     6    1
    10     6     7    1
    11     7    10    1
    12    10    11    1
    13    11    12   ar
    14    12    13   ar
    15    13    14   ar
    16    14    15   ar
    17    15    16   ar
    18     7     8    1
    19     8     9    1
    20     1     2    1
    21     2     3    1
    22    20    21    1
    23    21    22   ar
    24    22    23   ar
    25    23    24   ar
    26    24    25   ar
    27    25    26   ar
    28    26    27    1
    29     3     1    1
    30    26    21   ar
    31     9     4    1
    32    16    11   ar
@<TRIPOS>MOLECULE
*****
 29 32 0 0 0
SMALL
GASTEIGER

@<TRIPOS>ATOM
      1 C         138.7035  138.7348  164.5900 C.3     1  UNL1        0.0642
      2 C         138.9414  137.4900  165.3924 C.3     1  UNL1        0.0178
      3 C         139.1198  137.4678  163.9032 C.3     1  UNL1        0.0178
      4 N         138.5972  139.6500  163.4063 N.3     1  UNL1       -0.2712
      5 C         137.7228  140.8668  163.4751 C.3     1  UNL1        0.0897
      6 C         137.6166  141.7819  162.2914 C.3     1  UNL1        0.0899
      7 N         138.3849  141.4804  161.0389 N.3     1  UNL1       -0.2665
      8 C         139.2594  140.2636  160.9701 C.3     1  UNL1        0.0899
      9 C         139.3655  139.3484  162.1537 C.3     1  UNL1        0.0897
     10 C         138.2787  142.3956  159.8552 C.3     1  UNL1        0.0992
     11 C         139.4248  143.2945  159.4970 C.ar    1  UNL1       -0.0061
     12 C         139.8621  143.4188  158.0675 C.ar    1  UNL1       -0.0029
     13 C         141.0083  144.3178  157.7093 C.ar    1  UNL1       -0.0003
     14 C         141.7171  145.0924  158.7806 C.ar    1  UNL1       -0.0000
     15 C         141.2798  144.9681  160.2100 C.ar    1  UNL1       -0.0003
     16 C         140.1337  144.0692  160.5682 C.ar    1  UNL1       -0.0029
     17 C         138.3240  139.6838  165.6878 C.3     1  UNL1        0.1128
     18 C         139.2916  139.9965  168.0786 C.2     1  UNL1        0.2294
     19 O         138.1491  139.2063  168.6444 O.2     1  UNL1       -0.2745
     20 N         139.3791  140.2354  166.6004 N.am    1  UNL1       -0.2553
     21 C         140.5216  141.0256  166.0347 C.ar    1  UNL1        0.0814
     22 C         140.3407  142.4791  165.7110 C.ar    1  UNL1        0.0172
     23 C         141.4833  143.2694  165.1452 C.ar    1  UNL1        0.0014
     24 C         142.8067  142.6061  164.9032 C.ar    1  UNL1        0.0024
     25 C         142.9876  141.1528  165.2268 C.ar    1  UNL1        0.0309
     26 C         141.8451  140.3625  165.7926 C.ar    1  UNL1        0.1537
     27 F         142.0261  138.9091  166.1162 F       1  UNL1       -0.2029
     28 C         141.4976  139.6846  169.4151 C.3     1  UNL1        0.0101
     29 C         140.3466  140.5481  168.9912 C.3     1  UNL1        0.0856
@<TRIPOS>BOND
     1    28    29    1
     2    29    18    1
     3    18    19    2
     4    18    20   am
     5    20    17    1
     6    17     1    1
     7     1     4    1
     8     4     5    1
     9     5     6    1
    10     6     7    1
    11     7    10    1
    12    10    11    1
    13    11    12   ar
    14    12    13   ar
    15    13    14   ar
    16    14    15   ar
    17    15    16   ar
    18     7     8    1
    19     8     9    1
    20     1     2    1
    21     2     3    1
    22    20    21    1
    23    21    22   ar
    24    22    23   ar
    25    23    24   ar
    26    24    25   ar
    27    25    26   ar
    28    26    27    1
    29     3     1    1
    30    26    21   ar
    31     9     4    1
    32    16    11   ar
@<TRIPOS>MOLECULE
*****
 29 32 0 0 0
SMALL
GASTEIGER

@<TRIPOS>ATOM
      1 C         143.6094  139.9508  162.5912 C.3     1  UNL1        0.0642
      2 C         144.0919  140.4145  161.2487 C.3     1  UNL1        0.0178
      3 C         144.3581  141.2449  162.4692 C.3     1  UNL1        0.0178
      4 N         143.3563  139.9346  164.0696 N.3     1  UNL1       -0.2712
      5 C         143.6758  138.7080  164.8718 C.3     1  UNL1        0.0897
      6 C         143.4227  138.6918  166.3502 C.3     1  UNL1        0.0899
      7 N         142.8502  139.9022  167.0264 N.3     1  UNL1       -0.2665
      8 C         142.5307  141.1287  166.2242 C.3     1  UNL1        0.0899
      9 C         142.7838  141.1449  164.7459 C.3     1  UNL1        0.0897
     10 C         142.5971  139.8859  168.5049 C.3     1  UNL1        0.0992
     11 C         141.7271  140.9366  169.1284 C.ar    1  UNL1       -0.0061
     12 C         140.2991  140.6248  169.4656 C.ar    1  UNL1       -0.0029
     13 C         139.4290  141.6756  170.0892 C.ar    1  UNL1       -0.0003
     14 C         139.9869  143.0382  170.3756 C.ar    1  UNL1       -0.0000
     15 C         141.4149  143.3501  170.0384 C.ar    1  UNL1       -0.0003
     16 C         142.2849  142.2993  169.4148 C.ar    1  UNL1       -0.0029
     17 C         142.9485  138.6624  162.1997 C.3     1  UNL1        0.1128
     18 C         141.0203  138.4648  160.4696 C.2     1  UNL1        0.2294
     19 O         142.0256  138.3182  159.3660 O.2     1  UNL1       -0.2745
     20 N         141.4817  138.6368  161.8865 N.am    1  UNL1       -0.2553
     21 C         140.4765  138.7834  162.9900 C.ar    1  UNL1        0.0814
     22 C         139.6829  140.0498  163.1185 C.ar    1  UNL1        0.0172
     23 C         138.6776  140.1963  164.2221 C.ar    1  UNL1        0.0014
     24 C         138.4659  139.0764  165.1972 C.ar    1  UNL1        0.0024
     25 C         139.2593  137.8100  165.0688 C.ar    1  UNL1        0.0309
     26 C         140.2647  137.6635  163.9652 C.ar    1  UNL1        0.1537
     27 F         141.0582  136.3971  163.8368 F       1  UNL1       -0.2029
     28 C         138.9080  139.6188  159.4918 C.3     1  UNL1        0.0101
     29 C         139.5536  138.4392  160.1564 C.3     1  UNL1        0.0856
@<TRIPOS>BOND
     1    28    29    1
     2    29    18    1
     3    18    19    2
     4    18    20   am
     5    20    17    1
     6    17     1    1
     7     1     4    1
     8     4     5    1
     9     5     6    1
    10     6     7    1
    11     7    10    1
    12    10    11    1
    13    11    12   ar
    14    12    13   ar
    15    13    14   ar
    16    14    15   ar
    17    15    16   ar
    18     7     8    1
    19     8     9    1
    20     1     2    1
    21     2     3    1
    22    20    21    1
    23    21    22   ar
    24    22    23   ar
    25    23    24   ar
    26    24    25   ar
    27    25    26   ar
    28    26    27    1
    29     3     1    1
    30    26    21   ar
    31     9     4    1
    32    16    11   ar
@<TRIPOS>MOLECULE
*****
 29 32 0 0 0
SMALL
GASTEIGER

@<TRIPOS>ATOM
      1 C         139.1946  140.5790  161.2431 C.3     1  UNL1        0.0642
      2 C         138.6678  140.5725  159.8387 C.3     1  UNL1        0.0178
      3 C         137.9146  139.8643  160.9255 C.3     1  UNL1        0.0178
      4 N         139.2882  140.3042  162.7148 N.3     1  UNL1       -0.2712
      5 C         138.1673  140.7082  163.6260 C.3     1  UNL1        0.0897
      6 C         138.2609  140.4334  165.0976 C.3     1  UNL1        0.0899
      7 N         139.4755  139.7545  165.6580 N.3     1  UNL1       -0.2665
      8 C         140.5963  139.3504  164.7468 C.3     1  UNL1        0.0899
      9 C         140.5027  139.6253  163.2752 C.3     1  UNL1        0.0897
     10 C         139.5691  139.4796  167.1297 C.3     1  UNL1        0.0992
     11 C         139.7861  140.6100  168.0915 C.ar    1  UNL1       -0.0061
     12 C         139.2406  140.5234  169.4861 C.ar    1  UNL1       -0.0029
     13 C         139.4576  141.6539  170.4479 C.ar    1  UNL1       -0.0003
     14 C         140.2201  142.8709  170.0150 C.ar    1  UNL1       -0.0000
     15 C         140.7656  142.9576  168.6204 C.ar    1  UNL1       -0.0003
     16 C         140.5486  141.8271  167.6586 C.ar    1  UNL1       -0.0029
     17 C         140.4421  141.3892  161.0497 C.3     1  UNL1        0.1128
     18 C         139.5743  143.7553  161.6811 C.2     1  UNL1        0.2294
     19 O         138.3548  143.5335  160.8363 O.2     1  UNL1       -0.2745
     20 N         140.6179  142.6832  161.7879 N.am    1  UNL1       -0.2553
     21 C         141.8373  142.9050  162.6327 C.ar    1  UNL1        0.0814
     22 C         143.1832  143.0441  161.9851 C.ar    1  UNL1        0.0172
     23 C         144.4027  143.2659  162.8300 C.ar    1  UNL1        0.0014
     24 C         144.2762  143.3486  164.3224 C.ar    1  UNL1        0.0024
     25 C         142.9304  143.2095  164.9699 C.ar    1  UNL1        0.0309
     26 C         141.7109  142.9877  164.1250 C.ar    1  UNL1        0.1537
     27 F         140.3651  142.8485  164.7726 F       1  UNL1       -0.2029
     28 C         139.6536  146.3521  161.6823 C.3     1  UNL1        0.0101
     29 C         139.7501  145.0492  162.4193 C.3     1  UNL1        0.0856
@<TRIPOS>BOND
     1    28    29    1
     2    29    18    1
     3    18    19    2
     4    18    20   am
     5    20    17    1
     6    17     1    1
     7     1     4    1
     8     4     5    1
     9     5     6    1
    10     6     7    1
    11     7    10    1
    12    10    11    1
    13    11    12   ar
    14    12    13   ar
    15    13    14   ar
    16    14    15   ar
    17    15    16   ar
    18     7     8    1
    19     8     9    1
    20     1     2    1
    21     2     3    1
    22    20    21    1
    23    21    22   ar
    24    22    23   ar
    25    23    24   ar
    26    24    25   ar
    27    25    26   ar
    28    26    27    1
    29     3     1    1
    30    26    21   ar
    31     9     4    1
    32    16    11   ar
@<TRIPOS>MOLECULE
*****
 29 32 0 0 0
SMALL
GASTEIGER

@<TRIPOS>ATOM
      1 C         143.0748  140.0890  165.8108 C.3     1  UNL1        0.0642
      2 C         142.8820  139.1374  166.9541 C.3     1  UNL1        0.0178
      3 C         143.0246  138.6115  165.5566 C.3     1  UNL1        0.0178
      4 N         143.2743  140.5876  164.4102 N.3     1  UNL1       -0.2712
      5 C         142.4249  140.0529  163.2955 C.3     1  UNL1        0.0897
      6 C         142.6244  140.5516  161.8950 C.3     1  UNL1        0.0899
      7 N         143.6734  141.5850  161.6092 N.3     1  UNL1       -0.2665
      8 C         144.5229  142.1197  162.7238 C.3     1  UNL1        0.0899
      9 C         144.3234  141.6210  164.1243 C.3     1  UNL1        0.0897
     10 C         143.8729  142.0836  160.2085 C.3     1  UNL1        0.0992
     11 C         143.0247  143.2037  159.6833 C.ar    1  UNL1       -0.0061
     12 C         143.1131  143.5975  158.2386 C.ar    1  UNL1       -0.0029
     13 C         142.2648  144.7176  157.7133 C.ar    1  UNL1       -0.0003
     14 C         141.3283  145.4439  158.6327 C.ar    1  UNL1       -0.0000
     15 C         141.2399  145.0501  160.0774 C.ar    1  UNL1       -0.0003
     16 C         142.0881  143.9300  160.6027 C.ar    1  UNL1       -0.0029
     17 C         143.0558  141.3933  166.5513 C.3     1  UNL1        0.1128
     18 C         141.6613  142.3728  168.5124 C.2     1  UNL1        0.2294
     19 O         142.8552  142.2668  169.4143 O.2     1  UNL1       -0.2745
     20 N         141.7616  141.9361  167.0809 N.am    1  UNL1       -0.2553
     21 C         140.5677  142.0422  166.1791 C.ar    1  UNL1        0.0814
     22 C         140.3748  143.2640  165.3306 C.ar    1  UNL1        0.0172
     23 C         139.1808  143.3701  164.4288 C.ar    1  UNL1        0.0014
     24 C         138.1798  142.2542  164.3754 C.ar    1  UNL1        0.0024
     25 C         138.3727  141.0325  165.2238 C.ar    1  UNL1        0.0309
     26 C         139.5666  140.9264  166.1257 C.ar    1  UNL1        0.1537
     27 F         139.7594  139.7045  166.9741 F       1  UNL1       -0.2029
     28 C         140.3710  144.1033  169.9584 C.3     1  UNL1        0.0101
     29 C         140.3672  142.9156  169.0421 C.3     1  UNL1        0.0856
@<TRIPOS>BOND
     1    28    29    1
     2    29    18    1
     3    18    19    2
     4    18    20   am
     5    20    17    1
     6    17     1    1
     7     1     4    1
     8     4     5    1
     9     5     6    1
    10     6     7    1
    11     7    10    1
    12    10    11    1
    13    11    12   ar
    14    12    13   ar
    15    13    14   ar
    16    14    15   ar
    17    15    16   ar
    18     7     8    1
    19     8     9    1
    20     1     2    1
    21     2     3    1
    22    20    21    1
    23    21    22   ar
    24    22    23   ar
    25    23    24   ar
    26    24    25   ar
    27    25    26   ar
    28    26    27    1
    29     3     1    1
    30    26    21   ar
    31     9     4    1
    32    16    11   ar
