@<TRIPOS>MOLECULE
*****
 35 40 0 0 0
SMALL
GASTEIGER

@<TRIPOS>ATOM
      1 C         140.7379  143.8672  162.7079 C.2     1  UNL1        0.0968
      2 C         139.6737  144.7970  163.2107 C.2     1  UNL1        0.0952
      3 BR        139.1707  144.6700  164.6182 Br      1  UNL1       -0.0439
      4 C         139.1125  145.8538  162.3062 C.2     1  UNL1        0.2434
      5 N         139.6155  145.9807  160.8987 N.2     1  UNL1       -0.0297
      6 C         140.6797  145.0509  160.3959 C.2     1  UNL1        0.4105
      7 N         141.3668  144.9366  159.0674 N.2     1  UNL1        0.0120
      8 C         142.3527  143.8092  159.1510 C.2     1  UNL1        0.3751
      9 N         142.2749  143.2267  160.5311 N.2     1  UNL1       -0.0450
     10 C         141.2409  143.9941  161.3005 C.3     1  UNL1        0.3605
     11 N         142.4215  140.6968  165.4217 N.3     1  UNL1       -0.2646
     12 C         141.2957  140.3642  164.4877 C.3     1  UNL1        0.0941
     13 C         140.7346  141.4209  163.5832 C.3     1  UNL1        0.1080
     14 N         141.2991  142.8104  163.6125 N.pl3   1  UNL1       -0.3037
     15 C         142.4248  143.1431  164.5464 C.3     1  UNL1        0.1080
     16 C         142.9859  142.0862  165.4510 C.3     1  UNL1        0.0941
     17 C         142.9826  139.6401  166.3262 C.3     1  UNL1        0.1222
     18 C         139.9991  140.1424  170.6539 C.3     1  UNL1        0.0754
     19 C         141.0996  139.7360  169.7190 C.ar    1  UNL1        0.1546
     20 C         141.2253  140.1354  168.2786 C.ar    1  UNL1        0.0550
     21 C         142.4709  139.5052  167.7299 C.ar    1  UNL1        0.1165
     22 N         143.1151  138.7163  168.8311 N.ar    1  UNL1       -0.0803
     23 O         142.2676  138.8590  170.0605 O.2     1  UNL1       -0.3580
     24 C         143.2575  143.3457  158.0481 C.ar    1  UNL1        0.0882
     25 C         142.8464  143.5225  156.6164 C.ar    1  UNL1        0.0089
     26 C         143.7513  143.0589  155.5136 C.ar    1  UNL1        0.0148
     27 C         145.0673  142.4185  155.8423 C.ar    1  UNL1        0.0480
     28 C         145.4784  142.2417  157.2740 C.ar    1  UNL1        0.0148
     29 C         144.5735  142.7053  158.3769 C.ar    1  UNL1        0.0089
     30 N         145.9721  141.9549  154.7394 N.pl3   1  UNL1       -0.3028
     31 C         147.4416  142.2495  154.8012 C.3     1  UNL1        0.1231
     32 C         148.3465  141.7860  153.6983 C.3     1  UNL1        0.1636
     33 O         147.7817  141.0278  152.5336 O.3     1  UNL1       -0.3501
     34 C         146.3123  140.7332  152.4720 C.3     1  UNL1        0.1636
     35 C         145.4074  141.1968  153.5749 C.3     1  UNL1        0.1231
@<TRIPOS>BOND
     1    18    19    1
     2    19    20   ar
     3    20    21   ar
     4    21    17    1
     5    17    11    1
     6    11    12    1
     7    12    13    1
     8    13    14    1
     9    14     1    1
    10     1     2    2
    11     2     3    1
    12     2     4    1
    13     4     5    2
    14     5     6    1
    15     6     7    2
    16     7     8    1
    17     8    24    1
    18    24    25   ar
    19    25    26   ar
    20    26    27   ar
    21    27    30    1
    22    30    31    1
    23    31    32    1
    24    32    33    1
    25    33    34    1
    26    34    35    1
    27    27    28   ar
    28    28    29   ar
    29     8     9    2
    30     9    10    1
    31    14    15    1
    32    15    16    1
    33    21    22   ar
    34    22    23   ar
    35    23    19   ar
    36    16    11    1
    37    10     1    1
    38    10     6    1
    39    29    24   ar
    40    35    30    1
@<TRIPOS>MOLECULE
*****
 35 40 0 0 0
SMALL
GASTEIGER

@<TRIPOS>ATOM
      1 C         140.0186  144.3404  156.9277 C.2     1  UNL1        0.0968
      2 C         140.8379  145.3153  156.1350 C.2     1  UNL1        0.0952
      3 BR        140.5402  145.5378  154.6818 Br      1  UNL1       -0.0439
      4 C         141.9548  146.0676  156.7956 C.2     1  UNL1        0.2434
      5 N         142.2525  145.8451  158.2489 N.2     1  UNL1       -0.0297
      6 C         141.4332  144.8702  159.0415 C.2     1  UNL1        0.4105
      7 N         141.4920  144.4452  160.4788 N.2     1  UNL1        0.0120
      8 C         140.4114  143.4301  160.7065 C.2     1  UNL1        0.3751
      9 N         139.6847  143.2278  159.4099 N.2     1  UNL1       -0.0450
     10 C         140.3163  144.1178  158.3809 C.3     1  UNL1        0.3605
     11 N         136.6677  142.0833  154.9458 N.3     1  UNL1       -0.2646
     12 C         136.5813  143.5731  155.0983 C.3     1  UNL1        0.0941
     13 C         137.6982  144.3254  155.7589 C.3     1  UNL1        0.1080
     14 N         138.9017  143.5880  156.2671 N.pl3   1  UNL1       -0.3037
     15 C         138.9881  142.0983  156.1146 C.3     1  UNL1        0.1080
     16 C         137.8711  141.3460  155.4540 C.3     1  UNL1        0.0941
     17 C         135.5508  141.3310  154.2853 C.3     1  UNL1        0.1222
     18 C         131.3089  139.8752  157.0725 C.3     1  UNL1        0.0754
     19 C         132.6474  139.8539  156.3958 C.ar    1  UNL1        0.1546
     20 C         133.2562  140.9773  155.6100 C.ar    1  UNL1        0.0550
     21 C         134.5972  140.5230  155.1147 C.ar    1  UNL1        0.1165
     22 N         134.8173  139.1189  155.5945 N.ar    1  UNL1       -0.0803
     23 O         133.6123  138.7054  156.3862 O.2     1  UNL1       -0.3580
     24 C         140.1102  142.7387  162.0032 C.ar    1  UNL1        0.0882
     25 C         141.1303  141.8308  162.6236 C.ar    1  UNL1        0.0089
     26 C         140.8291  141.1394  163.9203 C.ar    1  UNL1        0.0148
     27 C         139.5078  141.3560  164.5965 C.ar    1  UNL1        0.0480
     28 C         138.4877  142.2639  163.9760 C.ar    1  UNL1        0.0148
     29 C         138.7889  142.9553  162.6794 C.ar    1  UNL1        0.0089
     30 N         139.2066  140.6646  165.8931 N.pl3   1  UNL1       -0.3028
     31 C         139.9285  141.0692  167.1442 C.3     1  UNL1        0.1231
     32 C         139.6274  140.3778  168.4408 C.3     1  UNL1        0.1636
     33 O         138.6042  139.2818  168.4863 O.3     1  UNL1       -0.3501
     34 C         137.8824  138.8772  167.2353 C.3     1  UNL1        0.1636
     35 C         138.1835  139.5686  165.9387 C.3     1  UNL1        0.1231
@<TRIPOS>BOND
     1    18    19    1
     2    19    20   ar
     3    20    21   ar
     4    21    17    1
     5    17    11    1
     6    11    12    1
     7    12    13    1
     8    13    14    1
     9    14     1    1
    10     1     2    2
    11     2     3    1
    12     2     4    1
    13     4     5    2
    14     5     6    1
    15     6     7    2
    16     7     8    1
    17     8    24    1
    18    24    25   ar
    19    25    26   ar
    20    26    27   ar
    21    27    30    1
    22    30    31    1
    23    31    32    1
    24    32    33    1
    25    33    34    1
    26    34    35    1
    27    27    28   ar
    28    28    29   ar
    29     8     9    2
    30     9    10    1
    31    14    15    1
    32    15    16    1
    33    21    22   ar
    34    22    23   ar
    35    23    19   ar
    36    16    11    1
    37    10     1    1
    38    10     6    1
    39    29    24   ar
    40    35    30    1
@<TRIPOS>MOLECULE
*****
 35 40 0 0 0
SMALL
GASTEIGER

@<TRIPOS>ATOM
      1 C         142.2205  140.0913  160.5680 C.2     1  UNL1        0.0968
      2 C         142.8305  141.4568  160.6832 C.2     1  UNL1        0.0952
      3 BR        142.5419  142.3083  161.8841 Br      1  UNL1       -0.0439
      4 C         143.7290  141.9709  159.5978 C.2     1  UNL1        0.2434
      5 N         144.0176  141.1195  158.3969 N.2     1  UNL1       -0.0297
      6 C         143.4076  139.7540  158.2817 C.2     1  UNL1        0.4105
      7 N         143.5088  138.6956  157.2237 N.2     1  UNL1        0.0120
      8 C         142.6728  137.5274  157.6553 C.2     1  UNL1        0.3751
      9 N         142.0549  137.8638  158.9801 N.2     1  UNL1       -0.0450
     10 C         142.5091  139.2399  159.3673 C.3     1  UNL1        0.3605
     11 N         139.5250  138.5490  163.8247 N.3     1  UNL1       -0.2646
     12 C         140.9352  138.0488  163.7186 C.3     1  UNL1        0.0941
     13 C         141.8337  138.5629  162.6331 C.3     1  UNL1        0.1080
     14 N         141.3220  139.5773  161.6535 N.pl3   1  UNL1       -0.3037
     15 C         139.9119  140.0775  161.7596 C.3     1  UNL1        0.1080
     16 C         139.0134  139.5634  162.8452 C.3     1  UNL1        0.0941
     17 C         138.6266  138.0350  164.9101 C.3     1  UNL1        0.1222
     18 C         140.0310  141.0292  169.0265 C.3     1  UNL1        0.0754
     19 C         139.3042  140.0407  168.1634 C.ar    1  UNL1        0.1546
     20 C         139.6421  139.6940  166.7436 C.ar    1  UNL1        0.0550
     21 C         138.6587  138.6645  166.2714 C.ar    1  UNL1        0.1165
     22 N         137.7132  138.3749  167.3992 N.ar    1  UNL1       -0.0803
     23 O         138.1121  139.2254  168.5686 O.2     1  UNL1       -0.3580
     24 C         142.4872  136.2474  156.8955 C.ar    1  UNL1        0.0882
     25 C         143.3583  135.0638  157.1959 C.ar    1  UNL1        0.0089
     26 C         143.1726  133.7839  156.4361 C.ar    1  UNL1        0.0148
     27 C         142.1159  133.6875  155.3759 C.ar    1  UNL1        0.0480
     28 C         141.2448  134.8711  155.0754 C.ar    1  UNL1        0.0148
     29 C         141.4305  136.1510  155.8353 C.ar    1  UNL1        0.0089
     30 N         141.9303  132.4075  154.6161 N.pl3   1  UNL1       -0.3028
     31 C         140.7130  131.5639  154.8539 C.3     1  UNL1        0.1231
     32 C         140.5274  130.2840  154.0941 C.3     1  UNL1        0.1636
     33 O         141.5592  129.8477  153.0965 O.3     1  UNL1       -0.3501
     34 C         142.7764  130.6913  152.8587 C.3     1  UNL1        0.1636
     35 C         142.9620  131.9713  153.6185 C.3     1  UNL1        0.1231
@<TRIPOS>BOND
     1    18    19    1
     2    19    20   ar
     3    20    21   ar
     4    21    17    1
     5    17    11    1
     6    11    12    1
     7    12    13    1
     8    13    14    1
     9    14     1    1
    10     1     2    2
    11     2     3    1
    12     2     4    1
    13     4     5    2
    14     5     6    1
    15     6     7    2
    16     7     8    1
    17     8    24    1
    18    24    25   ar
    19    25    26   ar
    20    26    27   ar
    21    27    30    1
    22    30    31    1
    23    31    32    1
    24    32    33    1
    25    33    34    1
    26    34    35    1
    27    27    28   ar
    28    28    29   ar
    29     8     9    2
    30     9    10    1
    31    14    15    1
    32    15    16    1
    33    21    22   ar
    34    22    23   ar
    35    23    19   ar
    36    16    11    1
    37    10     1    1
    38    10     6    1
    39    29    24   ar
    40    35    30    1
@<TRIPOS>MOLECULE
*****
 35 40 0 0 0
SMALL
GASTEIGER

@<TRIPOS>ATOM
      1 C         143.1203  140.0407  157.7290 C.2     1  UNL1        0.0968
      2 C         144.0324  141.1886  157.4120 C.2     1  UNL1        0.0952
      3 BR        143.8316  142.5140  158.0850 Br      1  UNL1       -0.0439
      4 C         145.1451  141.0110  156.4219 C.2     1  UNL1        0.2434
      5 N         145.3458  139.6855  155.7489 N.2     1  UNL1       -0.0297
      6 C         144.4338  138.5377  156.0660 C.2     1  UNL1        0.4105
      7 N         144.3871  137.1248  155.5646 N.2     1  UNL1        0.0120
      8 C         143.2454  136.4291  156.2448 C.2     1  UNL1        0.3751
      9 N         142.5866  137.4121  157.1666 N.2     1  UNL1       -0.0450
     10 C         143.3210  138.7153  157.0560 C.3     1  UNL1        0.3605
     11 N         139.7820  140.5735  160.6992 N.3     1  UNL1       -0.2646
     12 C         139.5509  140.8774  159.2486 C.3     1  UNL1        0.0941
     13 C         140.6636  140.6998  158.2586 C.3     1  UNL1        0.1080
     14 N         142.0076  140.2183  158.7191 N.pl3   1  UNL1       -0.3037
     15 C         142.2387  139.9144  160.1697 C.3     1  UNL1        0.1080
     16 C         141.1259  140.0920  161.1597 C.3     1  UNL1        0.0941
     17 C         138.6693  140.7511  161.6892 C.3     1  UNL1        0.1222
     18 C         138.4969  144.7348  165.1507 C.3     1  UNL1        0.0754
     19 C         138.3417  143.9272  163.8962 C.ar    1  UNL1        0.1546
     20 C         138.7652  142.5006  163.7080 C.ar    1  UNL1        0.0550
     21 C         138.4209  142.0961  162.3052 C.ar    1  UNL1        0.1165
     22 N         137.7847  143.2728  161.6264 N.ar    1  UNL1       -0.0803
     23 O         137.7357  144.4044  162.6097 O.2     1  UNL1       -0.3580
     24 C         142.8347  135.0011  156.0393 C.ar    1  UNL1        0.0882
     25 C         143.3369  133.9353  156.9676 C.ar    1  UNL1        0.0089
     26 C         142.9261  132.5073  156.7620 C.ar    1  UNL1        0.0148
     27 C         142.0132  132.1452  155.6282 C.ar    1  UNL1        0.0480
     28 C         141.5110  133.2110  154.6999 C.ar    1  UNL1        0.0148
     29 C         141.9218  134.6390  154.9055 C.ar    1  UNL1        0.0089
     30 N         141.6025  130.7172  155.4228 N.pl3   1  UNL1       -0.3028
     31 C         140.3173  130.4006  154.7170 C.3     1  UNL1        0.1231
     32 C         139.9066  128.9726  154.5115 C.3     1  UNL1        0.1636
     33 O         140.7811  127.8613  155.0119 O.3     1  UNL1       -0.3501
     34 C         142.0662  128.1780  155.7176 C.3     1  UNL1        0.1636
     35 C         142.4769  129.6060  155.9231 C.3     1  UNL1        0.1231
@<TRIPOS>BOND
     1    18    19    1
     2    19    20   ar
     3    20    21   ar
     4    21    17    1
     5    17    11    1
     6    11    12    1
     7    12    13    1
     8    13    14    1
     9    14     1    1
    10     1     2    2
    11     2     3    1
    12     2     4    1
    13     4     5    2
    14     5     6    1
    15     6     7    2
    16     7     8    1
    17     8    24    1
    18    24    25   ar
    19    25    26   ar
    20    26    27   ar
    21    27    30    1
    22    30    31    1
    23    31    32    1
    24    32    33    1
    25    33    34    1
    26    34    35    1
    27    27    28   ar
    28    28    29   ar
    29     8     9    2
    30     9    10    1
    31    14    15    1
    32    15    16    1
    33    21    22   ar
    34    22    23   ar
    35    23    19   ar
    36    16    11    1
    37    10     1    1
    38    10     6    1
    39    29    24   ar
    40    35    30    1
@<TRIPOS>MOLECULE
*****
 35 40 0 0 0
SMALL
GASTEIGER

@<TRIPOS>ATOM
      1 C         143.3432  140.1921  159.9332 C.2     1  UNL1        0.0968
      2 C         143.8004  141.5982  159.6808 C.2     1  UNL1        0.0952
      3 BR        143.8759  142.5772  160.8148 Br      1  UNL1       -0.0439
      4 C         144.1820  142.0253  158.2945 C.2     1  UNL1        0.2434
      5 N         144.1065  141.0462  157.1605 N.2     1  UNL1       -0.0297
      6 C         143.6493  139.6401  157.4130 C.2     1  UNL1        0.4105
      7 N         143.4747  138.4624  156.5005 N.2     1  UNL1        0.0120
      8 C         142.9851  137.3075  157.3230 C.2     1  UNL1        0.3751
      9 N         142.8572  137.7714  158.7437 N.2     1  UNL1       -0.0450
     10 C         143.2676  139.2130  158.7993 C.3     1  UNL1        0.3605
     11 N         142.1983  138.9108  164.0923 N.3     1  UNL1       -0.2646
     12 C         143.6309  138.8400  163.6533 C.3     1  UNL1        0.0941
     13 C         144.0125  139.2671  162.2670 C.3     1  UNL1        0.1080
     14 N         142.9615  139.7650  161.3196 N.pl3   1  UNL1       -0.3037
     15 C         141.5289  139.8358  161.7585 C.3     1  UNL1        0.1080
     16 C         141.1473  139.4087  163.1449 C.3     1  UNL1        0.0941
     17 C         141.8167  138.4837  165.4786 C.3     1  UNL1        0.1222
     18 C         142.1114  142.5895  168.7857 C.3     1  UNL1        0.0754
     19 C         142.3058  141.2340  168.1735 C.ar    1  UNL1        0.1546
     20 C         141.7168  140.7588  166.8784 C.ar    1  UNL1        0.0550
     21 C         142.1703  139.3468  166.6534 C.ar    1  UNL1        0.1165
     22 N         143.0396  138.9494  167.8094 N.ar    1  UNL1       -0.0803
     23 O         143.1233  140.1157  168.7489 O.2     1  UNL1       -0.3580
     24 C         142.6776  135.9304  156.8140 C.ar    1  UNL1        0.0882
     25 C         143.3830  134.7411  157.3953 C.ar    1  UNL1        0.0089
     26 C         143.0753  133.3640  156.8863 C.ar    1  UNL1        0.0148
     27 C         142.0623  133.1762  155.7961 C.ar    1  UNL1        0.0480
     28 C         141.3569  134.3655  155.2149 C.ar    1  UNL1        0.0148
     29 C         141.6645  135.7426  155.7239 C.ar    1  UNL1        0.0089
     30 N         141.7547  131.7991  155.2872 N.pl3   1  UNL1       -0.3028
     31 C         140.7899  131.6167  154.1533 C.3     1  UNL1        0.1231
     32 C         140.4824  130.2396  153.6443 C.3     1  UNL1        0.1636
     33 O         141.1397  129.0449  154.2695 O.3     1  UNL1       -0.3501
     34 C         142.1044  129.2273  155.4034 C.3     1  UNL1        0.1636
     35 C         142.4120  130.6044  155.9123 C.3     1  UNL1        0.1231
@<TRIPOS>BOND
     1    18    19    1
     2    19    20   ar
     3    20    21   ar
     4    21    17    1
     5    17    11    1
     6    11    12    1
     7    12    13    1
     8    13    14    1
     9    14     1    1
    10     1     2    2
    11     2     3    1
    12     2     4    1
    13     4     5    2
    14     5     6    1
    15     6     7    2
    16     7     8    1
    17     8    24    1
    18    24    25   ar
    19    25    26   ar
    20    26    27   ar
    21    27    30    1
    22    30    31    1
    23    31    32    1
    24    32    33    1
    25    33    34    1
    26    34    35    1
    27    27    28   ar
    28    28    29   ar
    29     8     9    2
    30     9    10    1
    31    14    15    1
    32    15    16    1
    33    21    22   ar
    34    22    23   ar
    35    23    19   ar
    36    16    11    1
    37    10     1    1
    38    10     6    1
    39    29    24   ar
    40    35    30    1
@<TRIPOS>MOLECULE
*****
 35 40 0 0 0
SMALL
GASTEIGER

@<TRIPOS>ATOM
      1 C         143.3030  140.1040  158.5208 C.2     1  UNL1        0.0968
      2 C         143.6570  141.4472  157.9547 C.2     1  UNL1        0.0952
      3 BR        143.7280  142.6453  158.8546 Br      1  UNL1       -0.0439
      4 C         143.9399  141.5924  156.4889 C.2     1  UNL1        0.2434
      5 N         143.8689  140.3943  155.5890 N.2     1  UNL1       -0.0297
      6 C         143.5149  139.0511  156.1552 C.2     1  UNL1        0.4105
      7 N         143.3690  137.7006  155.5189 N.2     1  UNL1        0.0120
      8 C         142.9959  136.7208  156.5916 C.2     1  UNL1        0.3751
      9 N         142.9112  137.4657  157.8908 N.2     1  UNL1       -0.0450
     10 C         143.2320  138.9060  157.6211 C.3     1  UNL1        0.3605
     11 N         142.4542  139.6686  162.9186 N.3     1  UNL1       -0.2646
     12 C         141.3941  140.1985  161.9989 C.3     1  UNL1        0.0941
     13 C         141.6771  140.3436  160.5331 C.3     1  UNL1        0.1080
     14 N         143.0201  139.9589  159.9868 N.pl3   1  UNL1       -0.3037
     15 C         144.0801  139.4290  160.9063 C.3     1  UNL1        0.1080
     16 C         143.7971  139.2839  162.3723 C.3     1  UNL1        0.0941
     17 C         142.1712  139.5235  164.3844 C.3     1  UNL1        0.1222
     18 C         137.6573  138.5684  166.9522 C.3     1  UNL1        0.0754
     19 C         138.8262  138.4308  166.0223 C.ar    1  UNL1        0.1546
     20 C         139.9599  139.4029  165.8814 C.ar    1  UNL1        0.0550
     21 C         140.9010  138.8698  164.8421 C.ar    1  UNL1        0.1165
     22 N         140.3489  137.5684  164.3406 N.ar    1  UNL1       -0.0803
     23 O         139.0666  137.2970  165.0700 O.2     1  UNL1       -0.3580
     24 C         142.7506  135.2536  156.3990 C.ar    1  UNL1        0.0882
     25 C         143.5605  134.2507  157.1659 C.ar    1  UNL1        0.0089
     26 C         143.3151  132.7834  156.9733 C.ar    1  UNL1        0.0148
     27 C         142.2598  132.3191  156.0137 C.ar    1  UNL1        0.0480
     28 C         141.4498  133.3220  155.2468 C.ar    1  UNL1        0.0148
     29 C         141.6953  134.7892  155.4395 C.ar    1  UNL1        0.0089
     30 N         142.0144  130.8519  155.8211 N.pl3   1  UNL1       -0.3028
     31 C         140.9039  130.3884  154.9255 C.3     1  UNL1        0.1231
     32 C         140.6586  128.9212  154.7329 C.3     1  UNL1        0.1636
     33 O         141.5238  127.9175  155.4359 O.3     1  UNL1       -0.3501
     34 C         142.6342  128.3811  156.3314 C.3     1  UNL1        0.1636
     35 C         142.8795  129.8483  156.5240 C.3     1  UNL1        0.1231
@<TRIPOS>BOND
     1    18    19    1
     2    19    20   ar
     3    20    21   ar
     4    21    17    1
     5    17    11    1
     6    11    12    1
     7    12    13    1
     8    13    14    1
     9    14     1    1
    10     1     2    2
    11     2     3    1
    12     2     4    1
    13     4     5    2
    14     5     6    1
    15     6     7    2
    16     7     8    1
    17     8    24    1
    18    24    25   ar
    19    25    26   ar
    20    26    27   ar
    21    27    30    1
    22    30    31    1
    23    31    32    1
    24    32    33    1
    25    33    34    1
    26    34    35    1
    27    27    28   ar
    28    28    29   ar
    29     8     9    2
    30     9    10    1
    31    14    15    1
    32    15    16    1
    33    21    22   ar
    34    22    23   ar
    35    23    19   ar
    36    16    11    1
    37    10     1    1
    38    10     6    1
    39    29    24   ar
    40    35    30    1
@<TRIPOS>MOLECULE
*****
 35 40 0 0 0
SMALL
GASTEIGER

@<TRIPOS>ATOM
      1 C         142.5645  139.4479  157.5525 C.2     1  UNL1        0.0968
      2 C         143.2311  140.6929  157.0468 C.2     1  UNL1        0.0952
      3 BR        142.8051  142.0348  157.5645 Br      1  UNL1       -0.0439
      4 C         144.3235  140.5960  156.0236 C.2     1  UNL1        0.2434
      5 N         144.7495  139.2540  155.5060 N.2     1  UNL1       -0.0297
      6 C         144.0829  138.0091  156.0117 C.2     1  UNL1        0.4105
      7 N         144.2884  136.5587  155.6889 N.2     1  UNL1        0.0120
      8 C         143.3229  135.7593  156.5127 C.2     1  UNL1        0.3751
      9 N         142.5207  136.7155  157.3446 N.2     1  UNL1       -0.0450
     10 C         142.9904  138.1060  157.0350 C.3     1  UNL1        0.3605
     11 N         139.2871  139.7387  160.6225 N.3     1  UNL1       -0.2646
     12 C         140.7230  139.7308  161.0566 C.3     1  UNL1        0.0941
     13 C         141.8154  139.6338  160.0334 C.3     1  UNL1        0.1080
     14 N         141.4720  139.5448  158.5758 N.pl3   1  UNL1       -0.3037
     15 C         140.0363  139.5528  158.1416 C.3     1  UNL1        0.1080
     16 C         138.9438  139.6497  159.1650 C.3     1  UNL1        0.0941
     17 C         138.1947  139.8357  161.6457 C.3     1  UNL1        0.1222
     18 C         138.4438  139.1143  166.8706 C.3     1  UNL1        0.0754
     19 C         138.4823  138.8629  165.3923 C.ar    1  UNL1        0.1546
     20 C         138.2238  139.8777  164.3183 C.ar    1  UNL1        0.0550
     21 C         138.3678  139.1945  162.9907 C.ar    1  UNL1        0.1165
     22 N         138.7154  137.7574  163.2442 N.ar    1  UNL1       -0.0803
     23 O         138.7861  137.5525  164.7285 O.2     1  UNL1       -0.3580
     24 C         143.1840  134.2657  156.5059 C.ar    1  UNL1        0.0882
     25 C         142.0896  133.6179  155.7105 C.ar    1  UNL1        0.0089
     26 C         141.9507  132.1243  155.7037 C.ar    1  UNL1        0.0148
     27 C         142.9062  131.2786  156.4922 C.ar    1  UNL1        0.0480
     28 C         144.0006  131.9264  157.2876 C.ar    1  UNL1        0.0148
     29 C         144.1394  133.4200  157.2944 C.ar    1  UNL1        0.0089
     30 N         142.7672  129.7851  156.4854 N.pl3   1  UNL1       -0.3028
     31 C         141.9447  129.1132  155.4262 C.3     1  UNL1        0.1231
     32 C         141.8057  127.6196  155.4193 C.3     1  UNL1        0.1636
     33 O         142.4894  126.7980  156.4718 O.3     1  UNL1       -0.3501
     34 C         143.3119  127.4699  157.5309 C.3     1  UNL1        0.1636
     35 C         143.4509  128.9635  157.5378 C.3     1  UNL1        0.1231
@<TRIPOS>BOND
     1    18    19    1
     2    19    20   ar
     3    20    21   ar
     4    21    17    1
     5    17    11    1
     6    11    12    1
     7    12    13    1
     8    13    14    1
     9    14     1    1
    10     1     2    2
    11     2     3    1
    12     2     4    1
    13     4     5    2
    14     5     6    1
    15     6     7    2
    16     7     8    1
    17     8    24    1
    18    24    25   ar
    19    25    26   ar
    20    26    27   ar
    21    27    30    1
    22    30    31    1
    23    31    32    1
    24    32    33    1
    25    33    34    1
    26    34    35    1
    27    27    28   ar
    28    28    29   ar
    29     8     9    2
    30     9    10    1
    31    14    15    1
    32    15    16    1
    33    21    22   ar
    34    22    23   ar
    35    23    19   ar
    36    16    11    1
    37    10     1    1
    38    10     6    1
    39    29    24   ar
    40    35    30    1
@<TRIPOS>MOLECULE
*****
 35 40 0 0 0
SMALL
GASTEIGER

@<TRIPOS>ATOM
      1 C         142.4138  138.8981  158.2268 C.2     1  UNL1        0.0968
      2 C         142.7924  140.3272  157.9734 C.2     1  UNL1        0.0952
      3 BR        142.3103  141.4059  158.8976 Br      1  UNL1       -0.0439
      4 C         143.6530  140.6776  156.7960 C.2     1  UNL1        0.2434
      5 N         144.1352  139.5989  155.8718 N.2     1  UNL1       -0.0297
      6 C         143.7566  138.1698  156.1252 C.2     1  UNL1        0.4105
      7 N         144.0793  136.9011  155.3930 N.2     1  UNL1        0.0120
      8 C         143.4182  135.7665  156.1180 C.2     1  UNL1        0.3751
      9 N         142.6868  136.3340  157.2983 N.2     1  UNL1       -0.0450
     10 C         142.8959  137.8194  157.3027 C.3     1  UNL1        0.3605
     11 N         139.8319  137.8468  161.7594 N.3     1  UNL1       -0.2646
     12 C         141.3260  137.7804  161.8761 C.3     1  UNL1        0.0941
     13 C         142.1865  138.1308  160.6987 C.3     1  UNL1        0.1080
     14 N         141.5532  138.5477  159.4043 N.pl3   1  UNL1       -0.3037
     15 C         140.0592  138.6141  159.2875 C.3     1  UNL1        0.1080
     16 C         139.1986  138.2636  160.4651 C.3     1  UNL1        0.0941
     17 C         138.9713  137.4964  162.9368 C.3     1  UNL1        0.1222
     18 C         139.0851  139.7316  167.7194 C.3     1  UNL1        0.0754
     19 C         138.8491  139.5060  166.2553 C.ar    1  UNL1        0.1546
     20 C         139.2134  138.2726  165.4832 C.ar    1  UNL1        0.0550
     21 C         138.7968  138.4786  164.0571 C.ar    1  UNL1        0.1165
     22 N         138.1750  139.8393  163.9477 N.ar    1  UNL1       -0.0803
     23 O         138.2073  140.4743  165.3063 O.2     1  UNL1       -0.3580
     24 C         143.4779  134.3186  155.7308 C.ar    1  UNL1        0.0882
     25 C         144.2344  133.3445  156.5845 C.ar    1  UNL1        0.0089
     26 C         144.2941  131.8966  156.1971 C.ar    1  UNL1        0.0148
     27 C         143.5973  131.4227  154.9562 C.ar    1  UNL1        0.0480
     28 C         142.8408  132.3968  154.1025 C.ar    1  UNL1        0.0148
     29 C         142.7811  133.8448  154.4898 C.ar    1  UNL1        0.0089
     30 N         143.6570  129.9748  154.5690 N.pl3   1  UNL1       -0.3028
     31 C         142.7831  128.9751  155.2667 C.3     1  UNL1        0.1231
     32 C         142.8428  127.5272  154.8795 C.3     1  UNL1        0.1636
     33 O         143.7765  127.0790  153.7944 O.3     1  UNL1       -0.3501
     34 C         144.6504  128.0787  153.0967 C.3     1  UNL1        0.1636
     35 C         144.5907  129.5266  153.4839 C.3     1  UNL1        0.1231
@<TRIPOS>BOND
     1    18    19    1
     2    19    20   ar
     3    20    21   ar
     4    21    17    1
     5    17    11    1
     6    11    12    1
     7    12    13    1
     8    13    14    1
     9    14     1    1
    10     1     2    2
    11     2     3    1
    12     2     4    1
    13     4     5    2
    14     5     6    1
    15     6     7    2
    16     7     8    1
    17     8    24    1
    18    24    25   ar
    19    25    26   ar
    20    26    27   ar
    21    27    30    1
    22    30    31    1
    23    31    32    1
    24    32    33    1
    25    33    34    1
    26    34    35    1
    27    27    28   ar
    28    28    29   ar
    29     8     9    2
    30     9    10    1
    31    14    15    1
    32    15    16    1
    33    21    22   ar
    34    22    23   ar
    35    23    19   ar
    36    16    11    1
    37    10     1    1
    38    10     6    1
    39    29    24   ar
    40    35    30    1
@<TRIPOS>MOLECULE
*****
 35 40 0 0 0
SMALL
GASTEIGER

@<TRIPOS>ATOM
      1 C         140.5773  139.4841  162.7629 C.2     1  UNL1        0.0968
      2 C         139.3385  138.6852  163.0403 C.2     1  UNL1        0.0952
      3 BR        138.8018  138.5947  164.4382 Br      1  UNL1       -0.0439
      4 C         138.6363  137.9769  161.9201 C.2     1  UNL1        0.2434
      5 N         139.1730  138.0674  160.5222 N.2     1  UNL1       -0.0297
      6 C         140.4118  138.8663  160.2448 C.2     1  UNL1        0.4105
      7 N         141.1697  139.1358  158.9787 N.2     1  UNL1        0.0120
      8 C         142.3403  140.0107  159.3166 C.2     1  UNL1        0.3751
      9 N         142.3059  140.2820  160.7915 N.2     1  UNL1       -0.0450
     10 C         141.1140  139.5747  161.3652 C.3     1  UNL1        0.3605
     11 N         142.6838  141.6093  166.1240 N.3     1  UNL1       -0.2646
     12 C         141.7225  142.3579  165.2489 C.3     1  UNL1        0.0941
     13 C         141.0204  141.6495  164.1286 C.3     1  UNL1        0.1080
     14 N         141.2795  140.1925  163.8833 N.pl3   1  UNL1       -0.3037
     15 C         142.2407  139.4439  164.7583 C.3     1  UNL1        0.1080
     16 C         142.9428  140.1524  165.8787 C.3     1  UNL1        0.0941
     17 C         143.3859  142.3176  167.2443 C.3     1  UNL1        0.1222
     18 C         139.5779  142.8758  170.8594 C.3     1  UNL1        0.0754
     19 C         140.9271  142.8059  170.2077 C.ar    1  UNL1        0.1546
     20 C         141.1928  142.5237  168.7586 C.ar    1  UNL1        0.0550
     21 C         142.6774  142.5494  168.5460 C.ar    1  UNL1        0.1165
     22 N         143.3293  142.8475  169.8637 N.ar    1  UNL1       -0.0803
     23 O         142.2476  143.0060  170.8907 O.2     1  UNL1       -0.3580
     24 C         143.3654  140.5243  158.3495 C.ar    1  UNL1        0.0882
     25 C         144.1942  141.7239  158.7016 C.ar    1  UNL1        0.0089
     26 C         145.2193  142.2374  157.7344 C.ar    1  UNL1        0.0148
     27 C         145.4156  141.5514  156.4150 C.ar    1  UNL1        0.0480
     28 C         144.5869  140.3518  156.0628 C.ar    1  UNL1        0.0148
     29 C         143.5618  139.8383  157.0301 C.ar    1  UNL1        0.0089
     30 N         146.4408  142.0649  155.4478 N.pl3   1  UNL1       -0.3028
     31 C         147.8719  141.6331  155.5722 C.3     1  UNL1        0.1231
     32 C         148.8970  142.1467  154.6050 C.3     1  UNL1        0.1636
     33 O         148.4908  143.0921  153.5135 O.3     1  UNL1       -0.3501
     34 C         147.0598  143.5238  153.3892 C.3     1  UNL1        0.1636
     35 C         146.0347  143.0103  154.3564 C.3     1  UNL1        0.1231
@<TRIPOS>BOND
     1    18    19    1
     2    19    20   ar
     3    20    21   ar
     4    21    17    1
     5    17    11    1
     6    11    12    1
     7    12    13    1
     8    13    14    1
     9    14     1    1
    10     1     2    2
    11     2     3    1
    12     2     4    1
    13     4     5    2
    14     5     6    1
    15     6     7    2
    16     7     8    1
    17     8    24    1
    18    24    25   ar
    19    25    26   ar
    20    26    27   ar
    21    27    30    1
    22    30    31    1
    23    31    32    1
    24    32    33    1
    25    33    34    1
    26    34    35    1
    27    27    28   ar
    28    28    29   ar
    29     8     9    2
    30     9    10    1
    31    14    15    1
    32    15    16    1
    33    21    22   ar
    34    22    23   ar
    35    23    19   ar
    36    16    11    1
    37    10     1    1
    38    10     6    1
    39    29    24   ar
    40    35    30    1
