@<TRIPOS>MOLECULE
*****
 34 35 0 0 0
SMALL
GASTEIGER

@<TRIPOS>ATOM
      1 C         139.4644  144.9406  162.4232 C.3     1  UNL1        0.1486
      2 C         140.0842  144.8417  161.0609 C.2     1  UNL1        0.2621
      3 O         139.3922  144.0705  159.9763 O.2     1  UNL1       -0.2713
      4 N         141.3961  145.5140  160.7831 N.am    1  UNL1       -0.1956
      5 O         142.0159  145.4150  159.4208 O.3     1  UNL1       -0.2951
      6 H         141.8503  146.0202  161.4950 H       1  UNL1        0.1823
      7 H         141.4442  144.8856  158.8431 H       1  UNL1        0.2414
      8 N         140.2918  145.3838  163.5933 N.pl3   1  UNL1       -0.3269
      9 H         140.3459  146.3393  163.8241 H       1  UNL1        0.1472
     10 C         141.0367  144.3711  164.4115 C.ar    1  UNL1        0.0444
     11 C         142.4944  144.1261  164.1562 C.ar    1  UNL1        0.0122
     12 C         143.2393  143.1135  164.9745 C.ar    1  UNL1        0.0065
     13 C         144.6970  142.8684  164.7191 C.3     1  UNL1        0.0334
     14 C         142.5265  142.3458  166.0481 C.ar    1  UNL1        0.1322
     15 F         143.2715  141.3331  166.8664 F       1  UNL1       -0.2048
     16 C         141.0689  142.5908  166.3034 C.ar    1  UNL1        0.0065
     17 C         140.3562  141.8231  167.3771 C.3     1  UNL1        0.0334
     18 C         140.3240  143.6034  165.4852 C.ar    1  UNL1        0.0122
     19 C         138.0171  144.5964  162.6155 C.3     1  UNL1        0.0290
     20 C         137.6332  143.2721  163.2060 C.3     1  UNL1        0.0036
     21 C         138.3416  142.0235  162.7712 C.3     1  UNL1        0.0172
     22 C         137.6354  140.7014  162.8298 C.3     1  UNL1        0.0688
     23 N         138.3990  139.4580  163.1774 N.3     1  UNL1       -0.2951
     24 H         137.7247  138.6928  163.1922 H       1  UNL1        0.1235
     25 C         139.1661  139.3841  164.4642 C.3     1  UNL1        0.0768
     26 C         140.6634  139.2975  164.4409 C.ar    1  UNL1       -0.0079
     27 C         141.4362  139.9637  163.3414 C.ar    1  UNL1       -0.0007
     28 C         142.9335  139.8771  163.3180 C.ar    1  UNL1        0.0294
     29 C         143.6581  139.1242  164.3942 C.ar    1  UNL1        0.1401
     30 F         145.1554  139.0376  164.3708 F       1  UNL1       -0.2042
     31 C         142.8853  138.4580  165.4938 C.ar    1  UNL1        0.0294
     32 C         141.3880  138.5446  165.5171 C.ar    1  UNL1       -0.0007
     33 C         137.9965  138.1067  166.4008 C.3     1  UNL1        0.0018
     34 C         138.4359  139.3969  165.7745 C.3     1  UNL1        0.0202
@<TRIPOS>BOND
     1    33    34    1
     2    34    25    1
     3    25    23    1
     4    23    22    1
     5    22    21    1
     6    21    20    1
     7    20    19    1
     8     1    19    1
     9     1     8    1
    10     8    10    1
    11    10    11   ar
    12    11    12   ar
    13    12    13    1
    14    12    14   ar
    15    14    15    1
    16    14    16   ar
    17    16    17    1
    18    16    18   ar
    19     1     2    1
    20     2     3    2
    21     2     4   am
    22     4     5    1
    23    25    26    1
    24    26    27   ar
    25    27    28   ar
    26    28    29   ar
    27    29    30    1
    28    29    31   ar
    29    31    32   ar
    30    18    10   ar
    31    32    26   ar
    32    23    24    1
    33     8     9    1
    34     4     6    1
    35     5     7    1
@<TRIPOS>MOLECULE
*****
 34 35 0 0 0
SMALL
GASTEIGER

@<TRIPOS>ATOM
      1 C         142.2910  141.7853  169.4903 C.3     1  UNL1        0.1486
      2 C         142.4874  143.0838  170.2152 C.2     1  UNL1        0.2621
      3 O         141.3393  144.0363  170.3720 O.2     1  UNL1       -0.2713
      4 N         143.8319  143.4297  170.7833 N.am    1  UNL1       -0.1956
      5 O         144.0283  144.7281  171.5081 O.3     1  UNL1       -0.2951
      6 H         144.5854  142.8045  170.6803 H       1  UNL1        0.1823
      7 H         143.1933  145.2215  171.5196 H       1  UNL1        0.2414
      8 N         143.0052  141.5337  168.1955 N.pl3   1  UNL1       -0.3269
      9 H         143.7506  140.8915  168.1612 H       1  UNL1        0.1472
     10 C         142.5837  142.2606  166.9529 C.ar    1  UNL1        0.0444
     11 C         143.6167  142.7308  165.9722 C.ar    1  UNL1        0.0122
     12 C         143.1953  143.4577  164.7297 C.ar    1  UNL1        0.0065
     13 C         144.2283  143.9278  163.7489 C.3     1  UNL1        0.0334
     14 C         141.7408  143.7145  164.4678 C.ar    1  UNL1        0.1322
     15 F         141.3193  144.4414  163.2252 F       1  UNL1       -0.2048
     16 C         140.7078  143.2443  165.4486 C.ar    1  UNL1        0.0065
     17 C         139.2533  143.5011  165.1867 C.3     1  UNL1        0.0334
     18 C         141.1293  142.5174  166.6911 C.ar    1  UNL1        0.0122
     19 C         141.3803  140.7384  170.0603 C.3     1  UNL1        0.0290
     20 C         140.6604  139.7922  169.1459 C.3     1  UNL1        0.0036
     21 C         139.2872  140.1309  168.6463 C.3     1  UNL1        0.0172
     22 C         138.7172  139.4011  167.4662 C.3     1  UNL1        0.0688
     23 N         138.9278  139.9358  166.0806 N.3     1  UNL1       -0.2951
     24 H         138.0044  140.1514  165.7048 H       1  UNL1        0.1235
     25 C         139.6292  139.0987  165.0524 C.3     1  UNL1        0.0768
     26 C         141.1017  139.2698  164.8235 C.ar    1  UNL1       -0.0079
     27 C         141.5915  140.0248  163.6235 C.ar    1  UNL1       -0.0007
     28 C         143.0641  140.1959  163.3947 C.ar    1  UNL1        0.0294
     29 C         144.0468  139.6119  164.3658 C.ar    1  UNL1        0.1401
     30 F         145.5193  139.7829  164.1369 F       1  UNL1       -0.2042
     31 C         143.5571  138.8568  165.5658 C.ar    1  UNL1        0.0294
     32 C         142.0845  138.6857  165.7947 C.ar    1  UNL1       -0.0007
     33 C         139.4120  137.5793  162.9561 C.3     1  UNL1        0.0018
     34 C         138.8581  138.0906  164.2529 C.3     1  UNL1        0.0202
@<TRIPOS>BOND
     1    33    34    1
     2    34    25    1
     3    25    23    1
     4    23    22    1
     5    22    21    1
     6    21    20    1
     7    20    19    1
     8     1    19    1
     9     1     8    1
    10     8    10    1
    11    10    11   ar
    12    11    12   ar
    13    12    13    1
    14    12    14   ar
    15    14    15    1
    16    14    16   ar
    17    16    17    1
    18    16    18   ar
    19     1     2    1
    20     2     3    2
    21     2     4   am
    22     4     5    1
    23    25    26    1
    24    26    27   ar
    25    27    28   ar
    26    28    29   ar
    27    29    30    1
    28    29    31   ar
    29    31    32   ar
    30    18    10   ar
    31    32    26   ar
    32    23    24    1
    33     8     9    1
    34     4     6    1
    35     5     7    1
@<TRIPOS>MOLECULE
*****
 34 35 0 0 0
SMALL
GASTEIGER

@<TRIPOS>ATOM
      1 C         140.0826  140.2466  168.3353 C.3     1  UNL1        0.1486
      2 C         139.6028  140.8172  169.6369 C.2     1  UNL1        0.2621
      3 O         138.6813  140.0196  170.5112 O.2     1  UNL1       -0.2713
      4 N         140.0447  142.1855  170.0643 N.am    1  UNL1       -0.1956
      5 O         139.5649  142.7561  171.3659 O.3     1  UNL1       -0.2951
      6 H         140.6496  142.7090  169.4904 H       1  UNL1        0.1823
      7 H         138.9816  142.1167  171.8038 H       1  UNL1        0.2414
      8 N         141.5096  139.8082  168.1892 N.pl3   1  UNL1       -0.3269
      9 H         141.9236  139.2414  168.8795 H       1  UNL1        0.1472
     10 C         142.3059  140.2335  166.9912 C.ar    1  UNL1        0.0444
     11 C         142.8701  141.6215  166.9198 C.ar    1  UNL1        0.0122
     12 C         143.6664  142.0467  165.7219 C.ar    1  UNL1        0.0065
     13 C         144.2307  143.4347  165.6505 C.3     1  UNL1        0.0334
     14 C         143.8984  141.0839  164.5953 C.ar    1  UNL1        0.1322
     15 F         144.6947  141.5092  163.3973 F       1  UNL1       -0.2048
     16 C         143.3342  139.6959  164.6666 C.ar    1  UNL1        0.0065
     17 C         143.5662  138.7332  163.5400 C.3     1  UNL1        0.0334
     18 C         142.5379  139.2707  165.8646 C.ar    1  UNL1        0.0122
     19 C         139.1352  140.1143  167.1798 C.3     1  UNL1        0.0290
     20 C         138.0999  139.0290  167.1793 C.3     1  UNL1        0.0036
     21 C         138.2447  137.8549  166.2570 C.3     1  UNL1        0.0172
     22 C         139.0776  137.9748  165.0153 C.3     1  UNL1        0.0688
     23 N         138.5403  138.7030  163.8191 N.3     1  UNL1       -0.2951
     24 H         138.4071  138.0067  163.0858 H       1  UNL1        0.1235
     25 C         139.3247  139.8276  163.2110 C.3     1  UNL1        0.0768
     26 C         139.1993  141.2155  163.7660 C.ar    1  UNL1       -0.0079
     27 C         137.8422  141.8145  163.9883 C.ar    1  UNL1       -0.0007
     28 C         137.7168  143.2024  164.5433 C.ar    1  UNL1        0.0294
     29 C         138.9484  143.9913  164.8760 C.ar    1  UNL1        0.1401
     30 F         138.8229  145.3792  165.4309 F       1  UNL1       -0.2042
     31 C         140.3056  143.3923  164.6536 C.ar    1  UNL1        0.0294
     32 C         140.4310  142.0044  164.0986 C.ar    1  UNL1       -0.0007
     33 C         140.4520  138.1598  161.5685 C.3     1  UNL1        0.0018
     34 C         140.2347  139.5644  162.0479 C.3     1  UNL1        0.0202
@<TRIPOS>BOND
     1    33    34    1
     2    34    25    1
     3    25    23    1
     4    23    22    1
     5    22    21    1
     6    21    20    1
     7    20    19    1
     8     1    19    1
     9     1     8    1
    10     8    10    1
    11    10    11   ar
    12    11    12   ar
    13    12    13    1
    14    12    14   ar
    15    14    15    1
    16    14    16   ar
    17    16    17    1
    18    16    18   ar
    19     1     2    1
    20     2     3    2
    21     2     4   am
    22     4     5    1
    23    25    26    1
    24    26    27   ar
    25    27    28   ar
    26    28    29   ar
    27    29    30    1
    28    29    31   ar
    29    31    32   ar
    30    18    10   ar
    31    32    26   ar
    32    23    24    1
    33     8     9    1
    34     4     6    1
    35     5     7    1
@<TRIPOS>MOLECULE
*****
 34 35 0 0 0
SMALL
GASTEIGER

@<TRIPOS>ATOM
      1 C         141.1389  141.2550  168.5902 C.3     1  UNL1        0.1486
      2 C         141.9560  141.4263  169.8364 C.2     1  UNL1        0.2621
      3 O         143.2944  140.7593  169.9533 O.2     1  UNL1       -0.2713
      4 N         141.4346  142.2646  170.9658 N.am    1  UNL1       -0.1956
      5 O         142.2517  142.4359  172.2120 O.3     1  UNL1       -0.2951
      6 H         140.5561  142.7023  170.8891 H       1  UNL1        0.1823
      7 H         143.0825  141.9430  172.1242 H       1  UNL1        0.2414
      8 N         140.9579  142.4077  167.6477 N.pl3   1  UNL1       -0.3269
      9 H         140.4489  143.2009  167.9322 H       1  UNL1        0.1472
     10 C         141.5525  142.3519  166.2717 C.ar    1  UNL1        0.0444
     11 C         140.6667  142.1403  165.0798 C.ar    1  UNL1        0.0122
     12 C         141.2613  142.0845  163.7039 C.ar    1  UNL1        0.0065
     13 C         140.3754  141.8730  162.5120 C.3     1  UNL1        0.0334
     14 C         142.7418  142.2403  163.5198 C.ar    1  UNL1        0.1322
     15 F         143.3364  142.1844  162.1437 F       1  UNL1       -0.2048
     16 C         143.6277  142.4518  164.7116 C.ar    1  UNL1        0.0065
     17 C         145.1081  142.6075  164.5274 C.3     1  UNL1        0.0334
     18 C         143.0330  142.5076  166.0875 C.ar    1  UNL1        0.0122
     19 C         140.5028  139.9308  168.2866 C.3     1  UNL1        0.0290
     20 C         139.0596  139.8671  167.8829 C.3     1  UNL1        0.0036
     21 C         138.6912  139.5568  166.4624 C.3     1  UNL1        0.0172
     22 C         138.1942  138.1891  166.0980 C.3     1  UNL1        0.0688
     23 N         139.0432  137.2818  165.2578 N.3     1  UNL1       -0.2951
     24 H         139.7845  136.9285  165.8628 H       1  UNL1        0.1235
     25 C         139.7081  137.8094  164.0211 C.3     1  UNL1        0.0768
     26 C         141.1594  138.1875  164.0530 C.ar    1  UNL1       -0.0079
     27 C         141.9283  138.3194  162.7719 C.ar    1  UNL1       -0.0007
     28 C         143.3795  138.6975  162.8038 C.ar    1  UNL1        0.0294
     29 C         144.0618  138.9436  164.1168 C.ar    1  UNL1        0.1401
     30 F         145.5130  139.3217  164.1486 F       1  UNL1       -0.2042
     31 C         143.2928  138.8117  165.3979 C.ar    1  UNL1        0.0294
     32 C         141.8416  138.4336  165.3661 C.ar    1  UNL1       -0.0007
     33 C         138.0322  139.1508  162.5575 C.3     1  UNL1        0.0018
     34 C         138.9218  137.9589  162.7525 C.3     1  UNL1        0.0202
@<TRIPOS>BOND
     1    33    34    1
     2    34    25    1
     3    25    23    1
     4    23    22    1
     5    22    21    1
     6    21    20    1
     7    20    19    1
     8     1    19    1
     9     1     8    1
    10     8    10    1
    11    10    11   ar
    12    11    12   ar
    13    12    13    1
    14    12    14   ar
    15    14    15    1
    16    14    16   ar
    17    16    17    1
    18    16    18   ar
    19     1     2    1
    20     2     3    2
    21     2     4   am
    22     4     5    1
    23    25    26    1
    24    26    27   ar
    25    27    28   ar
    26    28    29   ar
    27    29    30    1
    28    29    31   ar
    29    31    32   ar
    30    18    10   ar
    31    32    26   ar
    32    23    24    1
    33     8     9    1
    34     4     6    1
    35     5     7    1
@<TRIPOS>MOLECULE
*****
 34 35 0 0 0
SMALL
GASTEIGER

@<TRIPOS>ATOM
      1 C         138.9191  138.5814  163.6197 C.3     1  UNL1        0.1486
      2 C         138.1490  139.4474  162.6673 C.2     1  UNL1        0.2621
      3 O         138.2163  140.9408  162.7895 O.2     1  UNL1       -0.2713
      4 N         137.3116  138.8198  161.5925 N.am    1  UNL1       -0.1956
      5 O         136.5415  139.6857  160.6401 O.3     1  UNL1       -0.2951
      6 H         137.2674  137.8395  161.5123 H       1  UNL1        0.1823
      7 H         136.6940  140.6190  160.8561 H       1  UNL1        0.2414
      8 N         140.1345  137.8414  163.1453 N.pl3   1  UNL1       -0.3269
      9 H         140.0342  137.0376  162.5857 H       1  UNL1        0.1472
     10 C         141.5028  138.3259  163.5236 C.ar    1  UNL1        0.0444
     11 C         142.3077  139.1349  162.5500 C.ar    1  UNL1        0.0122
     12 C         143.6759  139.6194  162.9283 C.ar    1  UNL1        0.0065
     13 C         144.4808  140.4283  161.9548 C.3     1  UNL1        0.0334
     14 C         144.2393  139.2949  164.2801 C.ar    1  UNL1        0.1322
     15 F         145.6076  139.7795  164.6583 F       1  UNL1       -0.2048
     16 C         143.4344  138.4860  165.2536 C.ar    1  UNL1        0.0065
     17 C         143.9978  138.1616  166.6054 C.3     1  UNL1        0.0334
     18 C         142.0662  138.0015  164.8754 C.ar    1  UNL1        0.0122
     19 C         138.4737  138.4556  165.0466 C.3     1  UNL1        0.0290
     20 C         138.5539  139.6392  165.9644 C.3     1  UNL1        0.0036
     21 C         138.7620  139.4346  167.4357 C.3     1  UNL1        0.0172
     22 C         139.8382  140.1937  168.1538 C.3     1  UNL1        0.0688
     23 N         141.2679  140.0583  167.7208 N.3     1  UNL1       -0.2951
     24 H         141.7215  139.4385  168.3920 H       1  UNL1        0.1235
     25 C         142.1344  141.2770  167.6027 C.3     1  UNL1        0.0768
     26 C         142.3584  141.9110  166.2619 C.ar    1  UNL1       -0.0079
     27 C         143.6647  142.5831  165.9589 C.ar    1  UNL1       -0.0007
     28 C         143.8888  143.2171  164.6181 C.ar    1  UNL1        0.0294
     29 C         142.8065  143.1790  163.5802 C.ar    1  UNL1        0.1401
     30 F         143.0306  143.8129  162.2393 F       1  UNL1       -0.2042
     31 C         141.5001  142.5068  163.8831 C.ar    1  UNL1        0.0294
     32 C         141.2761  141.8729  165.2240 C.ar    1  UNL1       -0.0007
     33 C         143.1747  140.9692  169.9635 C.3     1  UNL1        0.0018
     34 C         142.7768  141.8618  168.8256 C.3     1  UNL1        0.0202
@<TRIPOS>BOND
     1    33    34    1
     2    34    25    1
     3    25    23    1
     4    23    22    1
     5    22    21    1
     6    21    20    1
     7    20    19    1
     8     1    19    1
     9     1     8    1
    10     8    10    1
    11    10    11   ar
    12    11    12   ar
    13    12    13    1
    14    12    14   ar
    15    14    15    1
    16    14    16   ar
    17    16    17    1
    18    16    18   ar
    19     1     2    1
    20     2     3    2
    21     2     4   am
    22     4     5    1
    23    25    26    1
    24    26    27   ar
    25    27    28   ar
    26    28    29   ar
    27    29    30    1
    28    29    31   ar
    29    31    32   ar
    30    18    10   ar
    31    32    26   ar
    32    23    24    1
    33     8     9    1
    34     4     6    1
    35     5     7    1
@<TRIPOS>MOLECULE
*****
 34 35 0 0 0
SMALL
GASTEIGER

@<TRIPOS>ATOM
      1 C         137.7229  141.9776  163.9508 C.3     1  UNL1        0.1486
      2 C         137.6952  141.7407  162.4699 C.2     1  UNL1        0.2621
      3 O         137.9636  142.8735  161.5240 O.2     1  UNL1       -0.2713
      4 N         137.3991  140.3710  161.9348 N.am    1  UNL1       -0.1956
      5 O         137.3715  140.1341  160.4539 O.3     1  UNL1       -0.2951
      6 H         137.2230  139.6275  162.5556 H       1  UNL1        0.1823
      7 H         137.5642  140.9640  159.9901 H       1  UNL1        0.2414
      8 N         137.8125  140.8153  164.8947 N.pl3   1  UNL1       -0.3269
      9 H         137.0046  140.4912  165.3545 H       1  UNL1        0.1472
     10 C         139.1331  140.1467  165.1379 C.ar    1  UNL1        0.0444
     11 C         139.4400  138.8321  164.4840 C.ar    1  UNL1        0.0122
     12 C         140.7605  138.1636  164.7272 C.ar    1  UNL1        0.0065
     13 C         141.0674  136.8490  164.0733 C.3     1  UNL1        0.0334
     14 C         141.7742  138.8097  165.6244 C.ar    1  UNL1        0.1322
     15 F         143.0948  138.1411  165.8677 F       1  UNL1       -0.2048
     16 C         141.4674  140.1243  166.2784 C.ar    1  UNL1        0.0065
     17 C         142.4811  140.7704  167.1755 C.3     1  UNL1        0.0334
     18 C         140.1468  140.7928  166.0351 C.ar    1  UNL1        0.0122
     19 C         137.6610  143.3768  164.4878 C.3     1  UNL1        0.0290
     20 C         138.9278  144.1201  164.7923 C.3     1  UNL1        0.0036
     21 C         139.4401  145.1533  163.8332 C.3     1  UNL1        0.0172
     22 C         140.5664  144.8181  162.9008 C.3     1  UNL1        0.0688
     23 N         140.9193  143.3845  162.6359 N.3     1  UNL1       -0.2951
     24 H         140.0815  142.8349  162.8266 H       1  UNL1        0.1235
     25 C         142.0428  142.7371  163.3899 C.3     1  UNL1        0.0768
     26 C         142.5625  141.3980  162.9577 C.ar    1  UNL1       -0.0079
     27 C         143.8706  140.8935  163.4909 C.ar    1  UNL1       -0.0007
     28 C         144.3903  139.5544  163.0587 C.ar    1  UNL1        0.0294
     29 C         143.6019  138.7198  162.0934 C.ar    1  UNL1        0.1401
     30 F         144.1217  137.3807  161.6613 F       1  UNL1       -0.2042
     31 C         142.2937  139.2243  161.5602 C.ar    1  UNL1        0.0294
     32 C         141.7740  140.5634  161.9924 C.ar    1  UNL1       -0.0007
     33 C         143.7839  144.3881  164.3862 C.3     1  UNL1        0.0018
     34 C         142.6466  143.4287  164.5761 C.3     1  UNL1        0.0202
@<TRIPOS>BOND
     1    33    34    1
     2    34    25    1
     3    25    23    1
     4    23    22    1
     5    22    21    1
     6    21    20    1
     7    20    19    1
     8     1    19    1
     9     1     8    1
    10     8    10    1
    11    10    11   ar
    12    11    12   ar
    13    12    13    1
    14    12    14   ar
    15    14    15    1
    16    14    16   ar
    17    16    17    1
    18    16    18   ar
    19     1     2    1
    20     2     3    2
    21     2     4   am
    22     4     5    1
    23    25    26    1
    24    26    27   ar
    25    27    28   ar
    26    28    29   ar
    27    29    30    1
    28    29    31   ar
    29    31    32   ar
    30    18    10   ar
    31    32    26   ar
    32    23    24    1
    33     8     9    1
    34     4     6    1
    35     5     7    1
@<TRIPOS>MOLECULE
*****
 34 35 0 0 0
SMALL
GASTEIGER

@<TRIPOS>ATOM
      1 C         140.9751  141.0385  169.4215 C.3     1  UNL1        0.1486
      2 C         140.7426  142.3053  170.1903 C.2     1  UNL1        0.2621
      3 O         141.0601  142.3626  171.6551 O.2     1  UNL1       -0.2713
      4 N         140.1926  143.5149  169.4942 N.am    1  UNL1       -0.1956
      5 O         139.9601  144.7817  170.2630 O.3     1  UNL1       -0.2951
      6 H         139.9842  143.4773  168.5327 H       1  UNL1        0.1823
      7 H         140.2153  144.6492  171.1894 H       1  UNL1        0.2414
      8 N         142.3387  140.7307  168.8777 N.pl3   1  UNL1       -0.3269
      9 H         143.0280  140.3461  169.4661 H       1  UNL1        0.1472
     10 C         142.6522  141.0089  167.4374 C.ar    1  UNL1        0.0444
     11 C         142.2254  140.0388  166.3760 C.ar    1  UNL1        0.0122
     12 C         142.5388  140.3170  164.9358 C.ar    1  UNL1        0.0065
     13 C         142.1120  139.3469  163.8743 C.3     1  UNL1        0.0334
     14 C         143.2792  141.5654  164.5570 C.ar    1  UNL1        0.1322
     15 F         143.5927  141.8436  163.1167 F       1  UNL1       -0.2048
     16 C         143.7060  142.5355  165.6184 C.ar    1  UNL1        0.0065
     17 C         144.4464  143.7839  165.2395 C.3     1  UNL1        0.0334
     18 C         143.3925  142.2573  167.0586 C.ar    1  UNL1        0.0122
     19 C         139.8438  140.0794  169.1964 C.3     1  UNL1        0.0290
     20 C         138.9711  140.2202  167.9846 C.3     1  UNL1        0.0036
     21 C         138.4312  138.9978  167.3032 C.3     1  UNL1        0.0172
     22 C         138.3215  138.9596  165.8077 C.3     1  UNL1        0.0688
     23 N         137.8864  140.1825  165.0560 N.3     1  UNL1       -0.2951
     24 H         136.9173  140.0278  164.7778 H       1  UNL1        0.1235
     25 C         138.6279  140.6090  163.8239 C.3     1  UNL1        0.0768
     26 C         139.4206  141.8824  163.8287 C.ar    1  UNL1       -0.0079
     27 C         140.1071  142.3432  162.5771 C.ar    1  UNL1       -0.0007
     28 C         140.8998  143.6166  162.5819 C.ar    1  UNL1        0.0294
     29 C         141.0060  144.4293  163.8382 C.ar    1  UNL1        0.1401
     30 F         141.7986  145.7027  163.8429 F       1  UNL1       -0.2042
     31 C         140.3194  143.9685  165.0898 C.ar    1  UNL1        0.0294
     32 C         139.5268  142.6951  165.0850 C.ar    1  UNL1       -0.0007
     33 C         137.6087  140.0936  161.4903 C.3     1  UNL1        0.0018
     34 C         138.5768  139.7619  162.5869 C.3     1  UNL1        0.0202
@<TRIPOS>BOND
     1    33    34    1
     2    34    25    1
     3    25    23    1
     4    23    22    1
     5    22    21    1
     6    21    20    1
     7    20    19    1
     8     1    19    1
     9     1     8    1
    10     8    10    1
    11    10    11   ar
    12    11    12   ar
    13    12    13    1
    14    12    14   ar
    15    14    15    1
    16    14    16   ar
    17    16    17    1
    18    16    18   ar
    19     1     2    1
    20     2     3    2
    21     2     4   am
    22     4     5    1
    23    25    26    1
    24    26    27   ar
    25    27    28   ar
    26    28    29   ar
    27    29    30    1
    28    29    31   ar
    29    31    32   ar
    30    18    10   ar
    31    32    26   ar
    32    23    24    1
    33     8     9    1
    34     4     6    1
    35     5     7    1
@<TRIPOS>MOLECULE
*****
 34 35 0 0 0
SMALL
GASTEIGER

@<TRIPOS>ATOM
      1 C         140.8393  144.1851  163.0659 C.3     1  UNL1        0.1486
      2 C         139.9738  144.9185  162.0845 C.2     1  UNL1        0.2621
      3 O         139.0711  144.1535  161.1626 O.2     1  UNL1       -0.2713
      4 N         140.0110  146.4169  162.0251 N.am    1  UNL1       -0.1956
      5 O         139.1455  147.1502  161.0437 O.3     1  UNL1       -0.2951
      6 H         140.6035  146.9190  162.6302 H       1  UNL1        0.1823
      7 H         138.6281  146.5116  160.5286 H       1  UNL1        0.2414
      8 N         142.2387  143.7983  162.6890 N.pl3   1  UNL1       -0.3269
      9 H         142.9060  144.4949  162.4927 H       1  UNL1        0.1472
     10 C         142.6212  142.3499  162.6112 C.ar    1  UNL1        0.0444
     11 C         141.8684  141.4231  161.7034 C.ar    1  UNL1        0.0122
     12 C         142.2510  139.9748  161.6257 C.ar    1  UNL1        0.0065
     13 C         141.4982  139.0478  160.7178 C.3     1  UNL1        0.0334
     14 C         143.3864  139.4534  162.4557 C.ar    1  UNL1        0.1322
     15 F         143.7690  138.0050  162.3779 F       1  UNL1       -0.2048
     16 C         144.1393  140.3802  163.3635 C.ar    1  UNL1        0.0065
     17 C         145.2747  139.8588  164.1936 C.3     1  UNL1        0.0334
     18 C         143.7567  141.8285  163.4413 C.ar    1  UNL1        0.0122
     19 C         140.3054  143.8387  164.4242 C.3     1  UNL1        0.0290
     20 C         139.0305  144.4619  164.9103 C.3     1  UNL1        0.0036
     21 C         137.7271  143.7421  164.7288 C.3     1  UNL1        0.0172
     22 C         137.6513  142.5425  163.8314 C.3     1  UNL1        0.0688
     23 N         137.6702  141.1630  164.4201 N.3     1  UNL1       -0.2951
     24 H         138.0869  141.2444  165.3476 H       1  UNL1        0.1235
     25 C         138.3967  140.0564  163.7147 C.3     1  UNL1        0.0768
     26 C         139.6352  139.4663  164.3210 C.ar    1  UNL1       -0.0079
     27 C         140.0230  138.0517  164.0073 C.ar    1  UNL1       -0.0007
     28 C         141.2616  137.4615  164.6137 C.ar    1  UNL1        0.0294
     29 C         142.1123  138.2859  165.5338 C.ar    1  UNL1        0.1401
     30 F         143.3508  137.6957  166.1401 F       1  UNL1       -0.2042
     31 C         141.7245  139.7006  165.8475 C.ar    1  UNL1        0.0294
     32 C         140.4859  140.2907  165.2412 C.ar    1  UNL1       -0.0007
     33 C         138.1025  140.3326  161.1481 C.3     1  UNL1        0.0018
     34 C         137.8845  139.5400  162.4027 C.3     1  UNL1        0.0202
@<TRIPOS>BOND
     1    33    34    1
     2    34    25    1
     3    25    23    1
     4    23    22    1
     5    22    21    1
     6    21    20    1
     7    20    19    1
     8     1    19    1
     9     1     8    1
    10     8    10    1
    11    10    11   ar
    12    11    12   ar
    13    12    13    1
    14    12    14   ar
    15    14    15    1
    16    14    16   ar
    17    16    17    1
    18    16    18   ar
    19     1     2    1
    20     2     3    2
    21     2     4   am
    22     4     5    1
    23    25    26    1
    24    26    27   ar
    25    27    28   ar
    26    28    29   ar
    27    29    30    1
    28    29    31   ar
    29    31    32   ar
    30    18    10   ar
    31    32    26   ar
    32    23    24    1
    33     8     9    1
    34     4     6    1
    35     5     7    1
@<TRIPOS>MOLECULE
*****
 34 35 0 0 0
SMALL
GASTEIGER

@<TRIPOS>ATOM
      1 C         138.4873  138.6773  165.3582 C.3     1  UNL1        0.1486
      2 C         138.0288  138.6656  166.7863 C.2     1  UNL1        0.2621
      3 O         136.8553  137.8232  167.1903 O.2     1  UNL1       -0.2713
      4 N         138.7439  139.4962  167.8105 N.am    1  UNL1       -0.1956
      5 O         138.2854  139.4844  169.2386 O.3     1  UNL1       -0.2951
      6 H         139.5141  140.0491  167.5453 H       1  UNL1        0.1823
      7 H         137.5218  138.8930  169.3282 H       1  UNL1        0.2414
      8 N         137.9790  139.7279  164.4159 N.pl3   1  UNL1       -0.3269
      9 H         137.1283  139.5917  163.9394 H       1  UNL1        0.1472
     10 C         138.7668  140.9859  164.1994 C.ar    1  UNL1        0.0444
     11 C         139.9364  140.9862  163.2603 C.ar    1  UNL1        0.0122
     12 C         140.7241  142.2442  163.0439 C.ar    1  UNL1        0.0065
     13 C         141.8938  142.2445  162.1047 C.3     1  UNL1        0.0334
     14 C         140.3423  143.5019  163.7667 C.ar    1  UNL1        0.1322
     15 F         141.1301  144.7599  163.5502 F       1  UNL1       -0.2048
     16 C         139.1727  143.5016  164.7058 C.ar    1  UNL1        0.0065
     17 C         138.7908  144.7593  165.4285 C.3     1  UNL1        0.0334
     18 C         138.3849  142.2436  164.9222 C.ar    1  UNL1        0.0122
     19 C         139.4543  137.6385  164.8723 C.3     1  UNL1        0.0290
     20 C         140.9298  137.9021  164.9297 C.3     1  UNL1        0.0036
     21 C         141.7538  137.8292  163.6785 C.3     1  UNL1        0.0172
     22 C         142.9373  138.7346  163.5059 C.3     1  UNL1        0.0688
     23 N         143.7533  139.1378  164.6982 N.3     1  UNL1       -0.2951
     24 H         143.4841  138.5181  165.4624 H       1  UNL1        0.1235
     25 C         143.6678  140.5391  165.2264 C.3     1  UNL1        0.0768
     26 C         142.8683  140.8273  166.4624 C.ar    1  UNL1       -0.0079
     27 C         142.1169  142.1196  166.5852 C.ar    1  UNL1       -0.0007
     28 C         141.3174  142.4078  167.8212 C.ar    1  UNL1        0.0294
     29 C         141.2693  141.4036  168.9344 C.ar    1  UNL1        0.1401
     30 F         140.4698  141.6918  170.1705 F       1  UNL1       -0.2042
     31 C         142.0207  140.1112  168.8117 C.ar    1  UNL1        0.0294
     32 C         142.8202  139.8230  167.5756 C.ar    1  UNL1       -0.0007
     33 C         145.6638  141.3773  163.7899 C.3     1  UNL1        0.0018
     34 C         144.3818  141.6523  164.5185 C.3     1  UNL1        0.0202
@<TRIPOS>BOND
     1    33    34    1
     2    34    25    1
     3    25    23    1
     4    23    22    1
     5    22    21    1
     6    21    20    1
     7    20    19    1
     8     1    19    1
     9     1     8    1
    10     8    10    1
    11    10    11   ar
    12    11    12   ar
    13    12    13    1
    14    12    14   ar
    15    14    15    1
    16    14    16   ar
    17    16    17    1
    18    16    18   ar
    19     1     2    1
    20     2     3    2
    21     2     4   am
    22     4     5    1
    23    25    26    1
    24    26    27   ar
    25    27    28   ar
    26    28    29   ar
    27    29    30    1
    28    29    31   ar
    29    31    32   ar
    30    18    10   ar
    31    32    26   ar
    32    23    24    1
    33     8     9    1
    34     4     6    1
    35     5     7    1
