@<TRIPOS>MOLECULE
*****
 37 40 0 0 0
SMALL
GASTEIGER

@<TRIPOS>ATOM
      1 N         141.5000  138.2672  158.2970 N.3     1  UNL1       -0.2689
      2 C         142.5542  138.0686  159.3454 C.3     1  UNL1        0.0741
      3 C         142.1896  138.1402  160.7987 C.3     1  UNL1        0.0369
      4 C         140.7708  138.4102  161.2035 C.3     1  UNL1        0.0747
      5 C         139.7165  138.6088  160.1552 C.3     1  UNL1        0.0369
      6 C         140.0811  138.5372  158.7019 C.3     1  UNL1        0.0741
      7 N         140.4062  138.4818  162.6568 N.am    1  UNL1       -0.2999
      8 C         140.3433  139.8106  163.3497 C.2     1  UNL1        0.2806
      9 O         140.6450  141.0680  162.5894 O.2     1  UNL1       -0.2668
     10 H         140.2082  137.6566  163.1558 H       1  UNL1        0.1498
     11 C         139.9787  139.8821  164.8030 C.ar    1  UNL1        0.2014
     12 C         138.9450  138.9509  165.3636 C.ar    1  UNL1        0.0843
     13 C         138.5804  139.0223  166.8168 C.ar    1  UNL1        0.2018
     14 O         137.5468  138.0911  167.3774 O.2     1  UNL1       -0.2864
     15 C         139.2495  140.0251  167.7096 C.ar    1  UNL1        0.0737
     16 C         138.8850  140.0965  169.1628 C.ar    1  UNL1        0.0085
     17 C         139.5540  141.0992  170.0554 C.ar    1  UNL1        0.0299
     18 C         140.5877  142.0305  169.4949 C.ar    1  UNL1        0.1432
     19 F         141.2568  143.0332  170.3876 F       1  UNL1       -0.2041
     20 C         140.9523  141.9590  168.0416 C.ar    1  UNL1        0.0672
     21 C         140.2832  140.9563  167.1490 C.ar    1  UNL1        0.1508
     22 O         140.6478  140.8848  165.6957 O.2     1  UNL1       -0.4486
     23 C         141.8645  138.1956  156.8438 C.3     1  UNL1        0.0992
     24 C         142.7232  134.2131  154.9328 C.ar    1  UNL1        0.1385
     25 C         143.8478  135.0385  155.4839 C.ar    1  UNL1        0.0366
     26 C         143.5616  136.3661  156.1209 C.ar    1  UNL1        0.0002
     27 C         142.1508  136.8681  156.2068 C.ar    1  UNL1       -0.0059
     28 C         141.0261  136.0426  155.6557 C.ar    1  UNL1        0.0002
     29 C         141.3124  134.7151  155.0187 C.ar    1  UNL1        0.0366
     30 O         143.0094  132.8855  154.2958 O.3     1  UNL1       -0.4754
     31 C         143.6798  131.8025  155.0880 C.3     1  UNL1        0.2078
     32 C         143.0798  131.3391  156.3823 C.3     1  UNL1        0.0745
     33 C         143.9507  130.7131  157.4311 C.3     1  UNL1        0.0966
     34 C         144.6791  132.0131  157.6023 C.3     1  UNL1        0.0298
     35 C         143.2223  129.4131  157.2599 C.3     1  UNL1        0.0298
     36 C         144.3544  128.8626  159.2094 C.3     1  UNL1        0.1739
     37 O         144.8215  130.0871  158.4798 O.3     1  UNL1       -0.3557
@<TRIPOS>BOND
     1    36    37    1
     2    37    33    1
     3    33    34    1
     4    33    35    1
     5    33    32    1
     6    32    31    1
     7    31    30    1
     8    30    24    1
     9    24    25   ar
    10    25    26   ar
    11    26    27   ar
    12    27    23    1
    13    23     1    1
    14     1     2    1
    15     2     3    1
    16     3     4    1
    17     4     7    1
    18     7     8   am
    19     8     9    2
    20     8    11    1
    21    11    12   ar
    22    12    13   ar
    23    13    14    2
    24    13    15   ar
    25    15    16   ar
    26    16    17   ar
    27    17    18   ar
    28    18    19    1
    29    18    20   ar
    30    20    21   ar
    31    21    22   ar
    32     4     5    1
    33     5     6    1
    34    27    28   ar
    35    28    29   ar
    36    29    24   ar
    37     6     1    1
    38    22    11   ar
    39    21    15   ar
    40     7    10    1
@<TRIPOS>MOLECULE
*****
 37 40 0 0 0
SMALL
GASTEIGER

@<TRIPOS>ATOM
      1 N         143.9149  141.9140  162.0163 N.3     1  UNL1       -0.2689
      2 C         143.4935  142.3085  160.6318 C.3     1  UNL1        0.0741
      3 C         143.3773  141.2675  159.5581 C.3     1  UNL1        0.0369
      4 C         143.6824  139.8321  159.8688 C.3     1  UNL1        0.0747
      5 C         144.1038  139.4377  161.2533 C.3     1  UNL1        0.0369
      6 C         144.2201  140.4786  162.3271 C.3     1  UNL1        0.0741
      7 N         143.5662  138.7912  158.7951 N.am    1  UNL1       -0.2999
      8 C         142.2558  138.1006  158.5588 C.2     1  UNL1        0.2806
      9 O         141.0616  138.4508  159.3962 O.2     1  UNL1       -0.2668
     10 H         144.3500  138.5613  158.2455 H       1  UNL1        0.1498
     11 C         142.1396  137.0596  157.4850 C.ar    1  UNL1        0.2014
     12 C         141.0931  137.1953  156.4190 C.ar    1  UNL1        0.0843
     13 C         140.9768  136.1544  155.3452 C.ar    1  UNL1        0.2018
     14 O         139.9303  136.2902  154.2792 O.2     1  UNL1       -0.2864
     15 C         141.9071  134.9778  155.3374 C.ar    1  UNL1        0.0737
     16 C         141.7909  133.9369  154.2636 C.ar    1  UNL1        0.0085
     17 C         142.7212  132.7603  154.2559 C.ar    1  UNL1        0.0299
     18 C         143.7677  132.6245  155.3219 C.ar    1  UNL1        0.1432
     19 F         144.6981  131.4479  155.3141 F       1  UNL1       -0.2041
     20 C         143.8840  133.6654  156.3956 C.ar    1  UNL1        0.0672
     21 C         142.9537  134.8420  156.4034 C.ar    1  UNL1        0.1508
     22 O         143.0699  135.8830  157.4772 O.2     1  UNL1       -0.4486
     23 C         144.0312  142.9550  163.0900 C.3     1  UNL1        0.0992
     24 C         141.0322  143.0735  166.4430 C.ar    1  UNL1        0.1385
     25 C         142.3994  142.5036  166.6794 C.ar    1  UNL1        0.0366
     26 C         143.3991  142.4641  165.5618 C.ar    1  UNL1        0.0002
     27 C         143.0315  142.9945  164.2077 C.ar    1  UNL1       -0.0059
     28 C         141.6643  143.5644  163.9713 C.ar    1  UNL1        0.0002
     29 C         140.6647  143.6040  165.0889 C.ar    1  UNL1        0.0366
     30 O         140.0326  143.1131  167.5607 O.3     1  UNL1       -0.4754
     31 C         140.5012  143.1746  168.9842 C.3     1  UNL1        0.2078
     32 C         139.9844  142.1863  169.9873 C.3     1  UNL1        0.0745
     33 C         140.4555  140.7627  169.9490 C.3     1  UNL1        0.0966
     34 C         139.0343  140.2953  169.8408 C.3     1  UNL1        0.0298
     35 C         141.8767  141.2301  170.0571 C.3     1  UNL1        0.0298
     36 C         142.3635  139.0167  170.1960 C.3     1  UNL1        0.1739
     37 O         140.9266  139.3391  169.9106 O.3     1  UNL1       -0.3557
@<TRIPOS>BOND
     1    36    37    1
     2    37    33    1
     3    33    34    1
     4    33    35    1
     5    33    32    1
     6    32    31    1
     7    31    30    1
     8    30    24    1
     9    24    25   ar
    10    25    26   ar
    11    26    27   ar
    12    27    23    1
    13    23     1    1
    14     1     2    1
    15     2     3    1
    16     3     4    1
    17     4     7    1
    18     7     8   am
    19     8     9    2
    20     8    11    1
    21    11    12   ar
    22    12    13   ar
    23    13    14    2
    24    13    15   ar
    25    15    16   ar
    26    16    17   ar
    27    17    18   ar
    28    18    19    1
    29    18    20   ar
    30    20    21   ar
    31    21    22   ar
    32     4     5    1
    33     5     6    1
    34    27    28   ar
    35    28    29   ar
    36    29    24   ar
    37     6     1    1
    38    22    11   ar
    39    21    15   ar
    40     7    10    1
@<TRIPOS>MOLECULE
*****
 37 40 0 0 0
SMALL
GASTEIGER

@<TRIPOS>ATOM
      1 N         143.9924  142.2003  160.7731 N.3     1  UNL1       -0.2689
      2 C         143.9220  142.4793  159.3009 C.3     1  UNL1        0.0741
      3 C         143.8111  141.3439  158.3269 C.3     1  UNL1        0.0369
      4 C         143.7706  139.9297  158.8250 C.3     1  UNL1        0.0747
      5 C         143.8410  139.6507  160.2971 C.3     1  UNL1        0.0369
      6 C         143.9519  140.7860  161.2711 C.3     1  UNL1        0.0741
      7 N         143.6597  138.7944  157.8509 N.am    1  UNL1       -0.2999
      8 C         142.4089  137.9679  157.8017 C.2     1  UNL1        0.2806
      9 O         141.2691  138.2766  158.7266 O.2     1  UNL1       -0.2668
     10 H         144.4078  138.5917  157.2439 H       1  UNL1        0.1498
     11 C         142.2980  136.8325  156.8276 C.ar    1  UNL1        0.2014
     12 C         141.3189  136.9100  155.6939 C.ar    1  UNL1        0.0843
     13 C         141.2080  135.7747  154.7198 C.ar    1  UNL1        0.2018
     14 O         140.2288  135.8522  153.5861 O.2     1  UNL1       -0.2864
     15 C         142.0762  134.5620  154.8794 C.ar    1  UNL1        0.0737
     16 C         141.9653  133.4267  153.9053 C.ar    1  UNL1        0.0085
     17 C         142.8335  132.2140  154.0650 C.ar    1  UNL1        0.0299
     18 C         143.8127  132.1366  155.1987 C.ar    1  UNL1        0.1432
     19 F         144.6809  130.9238  155.3583 F       1  UNL1       -0.2041
     20 C         143.9236  133.2718  156.1728 C.ar    1  UNL1        0.0672
     21 C         143.0554  134.4845  156.0131 C.ar    1  UNL1        0.1508
     22 O         143.1662  135.6199  156.9872 O.2     1  UNL1       -0.4486
     23 C         144.1034  143.3356  161.7471 C.3     1  UNL1        0.0992
     24 C         140.5414  144.5322  164.2230 C.ar    1  UNL1        0.1385
     25 C         140.7389  145.1230  162.8586 C.ar    1  UNL1        0.0366
     26 C         141.9262  144.7242  162.0332 C.ar    1  UNL1        0.0002
     27 C         142.9160  143.7345  162.5724 C.ar    1  UNL1       -0.0059
     28 C         142.7185  143.1436  163.9369 C.ar    1  UNL1        0.0002
     29 C         141.5312  143.5425  164.7622 C.ar    1  UNL1        0.0366
     30 O         139.3540  144.9310  165.0484 O.3     1  UNL1       -0.4754
     31 C         137.9870  144.4308  164.6866 C.3     1  UNL1        0.2078
     32 C         137.7098  142.9568  164.6623 C.3     1  UNL1        0.0745
     33 C         138.2017  142.1199  163.5187 C.3     1  UNL1        0.0966
     34 C         137.6751  143.1357  162.5488 C.3     1  UNL1        0.0298
     35 C         138.7283  141.1041  164.4887 C.3     1  UNL1        0.0298
     36 C         140.1503  141.2833  162.0179 C.3     1  UNL1        0.1739
     37 O         138.6936  141.2830  162.3752 O.3     1  UNL1       -0.3557
@<TRIPOS>BOND
     1    36    37    1
     2    37    33    1
     3    33    34    1
     4    33    35    1
     5    33    32    1
     6    32    31    1
     7    31    30    1
     8    30    24    1
     9    24    25   ar
    10    25    26   ar
    11    26    27   ar
    12    27    23    1
    13    23     1    1
    14     1     2    1
    15     2     3    1
    16     3     4    1
    17     4     7    1
    18     7     8   am
    19     8     9    2
    20     8    11    1
    21    11    12   ar
    22    12    13   ar
    23    13    14    2
    24    13    15   ar
    25    15    16   ar
    26    16    17   ar
    27    17    18   ar
    28    18    19    1
    29    18    20   ar
    30    20    21   ar
    31    21    22   ar
    32     4     5    1
    33     5     6    1
    34    27    28   ar
    35    28    29   ar
    36    29    24   ar
    37     6     1    1
    38    22    11   ar
    39    21    15   ar
    40     7    10    1
@<TRIPOS>MOLECULE
*****
 37 40 0 0 0
SMALL
GASTEIGER

@<TRIPOS>ATOM
      1 N         143.2515  141.1988  158.7467 N.3     1  UNL1       -0.2689
      2 C         143.1925  139.9965  159.6417 C.3     1  UNL1        0.0741
      3 C         142.9872  138.6324  159.0526 C.3     1  UNL1        0.0369
      4 C         142.8409  138.4705  157.5686 C.3     1  UNL1        0.0747
      5 C         142.8998  139.6728  156.6736 C.3     1  UNL1        0.0369
      6 C         143.1052  141.0369  157.2626 C.3     1  UNL1        0.0741
      7 N         142.6355  137.1064  156.9796 N.am    1  UNL1       -0.2999
      8 C         143.6480  136.5399  156.0288 C.2     1  UNL1        0.2806
      9 O         144.8657  137.3374  155.6670 O.2     1  UNL1       -0.2668
     10 H         141.8363  136.5829  157.2170 H       1  UNL1        0.1498
     11 C         143.4426  135.1757  155.4398 C.ar    1  UNL1        0.2014
     12 C         142.5201  134.9945  154.2709 C.ar    1  UNL1        0.0843
     13 C         142.3147  133.6304  153.6819 C.ar    1  UNL1        0.2018
     14 O         141.3922  133.4493  152.5131 O.2     1  UNL1       -0.2864
     15 C         143.0318  132.4474  154.2617 C.ar    1  UNL1        0.0737
     16 C         142.8265  131.0833  153.6727 C.ar    1  UNL1        0.0085
     17 C         143.5436  129.9003  154.2525 C.ar    1  UNL1        0.0299
     18 C         144.4661  130.0814  155.4213 C.ar    1  UNL1        0.1432
     19 F         145.1833  128.8983  156.0011 F       1  UNL1       -0.2041
     20 C         144.6715  131.4455  156.0103 C.ar    1  UNL1        0.0672
     21 C         143.9544  132.6285  155.4305 C.ar    1  UNL1        0.1508
     22 O         144.1597  133.9927  156.0196 O.2     1  UNL1       -0.4486
     23 C         143.4568  142.5629  159.3357 C.3     1  UNL1        0.0992
     24 C         140.0569  144.6497  161.4181 C.ar    1  UNL1        0.1385
     25 C         139.9072  144.2124  159.9911 C.ar    1  UNL1        0.0366
     26 C         141.0405  143.5169  159.2969 C.ar    1  UNL1        0.0002
     27 C         142.3235  143.2585  160.0298 C.ar    1  UNL1       -0.0059
     28 C         142.4732  143.6957  161.4568 C.ar    1  UNL1        0.0002
     29 C         141.3399  144.3913  162.1509 C.ar    1  UNL1        0.0366
     30 O         138.9236  145.3452  162.1122 O.3     1  UNL1       -0.4754
     31 C         138.0687  144.5944  163.0896 C.3     1  UNL1        0.2078
     32 C         138.5676  144.3394  164.4810 C.3     1  UNL1        0.0745
     33 C         138.8244  142.9346  164.9401 C.3     1  UNL1        0.0966
     34 C         139.9156  143.4290  165.8427 C.3     1  UNL1        0.0298
     35 C         137.7331  142.4402  164.0375 C.3     1  UNL1        0.0298
     36 C         138.2135  140.4097  164.9069 C.3     1  UNL1        0.1739
     37 O         139.0811  141.5299  165.3991 O.3     1  UNL1       -0.3557
@<TRIPOS>BOND
     1    36    37    1
     2    37    33    1
     3    33    34    1
     4    33    35    1
     5    33    32    1
     6    32    31    1
     7    31    30    1
     8    30    24    1
     9    24    25   ar
    10    25    26   ar
    11    26    27   ar
    12    27    23    1
    13    23     1    1
    14     1     2    1
    15     2     3    1
    16     3     4    1
    17     4     7    1
    18     7     8   am
    19     8     9    2
    20     8    11    1
    21    11    12   ar
    22    12    13   ar
    23    13    14    2
    24    13    15   ar
    25    15    16   ar
    26    16    17   ar
    27    17    18   ar
    28    18    19    1
    29    18    20   ar
    30    20    21   ar
    31    21    22   ar
    32     4     5    1
    33     5     6    1
    34    27    28   ar
    35    28    29   ar
    36    29    24   ar
    37     6     1    1
    38    22    11   ar
    39    21    15   ar
    40     7    10    1
@<TRIPOS>MOLECULE
*****
 37 40 0 0 0
SMALL
GASTEIGER

@<TRIPOS>ATOM
      1 N         138.8336  141.3427  162.2027 N.3     1  UNL1       -0.2689
      2 C         140.1008  140.5401  162.2147 C.3     1  UNL1        0.0741
      3 C         140.9937  140.5302  161.0094 C.3     1  UNL1        0.0369
      4 C         140.6195  141.3228  159.7922 C.3     1  UNL1        0.0747
      5 C         139.3523  142.1253  159.7802 C.3     1  UNL1        0.0369
      6 C         138.4594  142.1353  160.9854 C.3     1  UNL1        0.0741
      7 N         141.5124  141.3128  158.5870 N.am    1  UNL1       -0.2999
      8 C         142.7472  142.1641  158.5614 C.2     1  UNL1        0.2806
      9 O         143.0891  143.0252  159.7410 O.2     1  UNL1       -0.2668
     10 H         141.2880  140.7476  157.8128 H       1  UNL1        0.1498
     11 C         143.6402  142.1541  157.3561 C.ar    1  UNL1        0.2014
     12 C         143.0428  142.1314  155.9804 C.ar    1  UNL1        0.0843
     13 C         143.9357  142.1214  154.7751 C.ar    1  UNL1        0.2018
     14 O         143.3384  142.0988  153.3994 O.2     1  UNL1       -0.2864
     15 C         145.4260  142.1341  154.9456 C.ar    1  UNL1        0.0737
     16 C         146.3188  142.1241  153.7404 C.ar    1  UNL1        0.0085
     17 C         147.8090  142.1368  153.9109 C.ar    1  UNL1        0.0299
     18 C         148.4064  142.1594  155.2866 C.ar    1  UNL1        0.1432
     19 F         149.8966  142.1721  155.4571 F       1  UNL1       -0.2041
     20 C         147.5135  142.1694  156.4919 C.ar    1  UNL1        0.0672
     21 C         146.0233  142.1568  156.3214 C.ar    1  UNL1        0.1508
     22 O         145.1303  142.1667  157.5266 O.2     1  UNL1       -0.4486
     23 C         137.9407  141.3526  163.4079 C.3     1  UNL1        0.0992
     24 C         139.5618  140.1166  167.4196 C.ar    1  UNL1        0.1385
     25 C         138.5528  139.2546  166.7205 C.ar    1  UNL1        0.0366
     26 C         138.0124  139.6666  165.3833 C.ar    1  UNL1        0.0002
     27 C         138.4810  140.9406  164.7451 C.ar    1  UNL1       -0.0059
     28 C         139.4901  141.8026  165.4442 C.ar    1  UNL1        0.0002
     29 C         140.0305  141.3906  166.7814 C.ar    1  UNL1        0.0366
     30 O         140.1022  139.7046  168.7569 O.3     1  UNL1       -0.4754
     31 C         139.5508  140.3177  170.0098 C.3     1  UNL1        0.2078
     32 C         139.6277  141.8016  170.2155 C.3     1  UNL1        0.0745
     33 C         140.9450  142.4485  170.5259 C.3     1  UNL1        0.0966
     34 C         140.5948  143.5946  169.6239 C.3     1  UNL1        0.0298
     35 C         141.2953  141.3023  171.4279 C.3     1  UNL1        0.0298
     36 C         143.4898  142.7031  170.0687 C.3     1  UNL1        0.1739
     37 O         142.2623  143.0953  170.8364 O.3     1  UNL1       -0.3557
@<TRIPOS>BOND
     1    36    37    1
     2    37    33    1
     3    33    34    1
     4    33    35    1
     5    33    32    1
     6    32    31    1
     7    31    30    1
     8    30    24    1
     9    24    25   ar
    10    25    26   ar
    11    26    27   ar
    12    27    23    1
    13    23     1    1
    14     1     2    1
    15     2     3    1
    16     3     4    1
    17     4     7    1
    18     7     8   am
    19     8     9    2
    20     8    11    1
    21    11    12   ar
    22    12    13   ar
    23    13    14    2
    24    13    15   ar
    25    15    16   ar
    26    16    17   ar
    27    17    18   ar
    28    18    19    1
    29    18    20   ar
    30    20    21   ar
    31    21    22   ar
    32     4     5    1
    33     5     6    1
    34    27    28   ar
    35    28    29   ar
    36    29    24   ar
    37     6     1    1
    38    22    11   ar
    39    21    15   ar
    40     7    10    1
@<TRIPOS>MOLECULE
*****
 37 40 0 0 0
SMALL
GASTEIGER

@<TRIPOS>ATOM
      1 N         143.0728  138.7438  157.6181 N.3     1  UNL1       -0.2689
      2 C         142.7243  137.8092  158.7384 C.3     1  UNL1        0.0741
      3 C         142.9225  138.2381  160.1621 C.3     1  UNL1        0.0369
      4 C         143.4691  139.6016  160.4655 C.3     1  UNL1        0.0747
      5 C         143.8176  140.5362  159.3452 C.3     1  UNL1        0.0369
      6 C         143.6195  140.1073  157.9215 C.3     1  UNL1        0.0741
      7 N         143.6672  140.0304  161.8891 N.am    1  UNL1       -0.2999
      8 C         142.5162  140.5910  162.6707 C.2     1  UNL1        0.2806
      9 O         141.1670  140.7227  162.0286 O.2     1  UNL1       -0.2668
     10 H         144.5528  139.9440  162.3105 H       1  UNL1        0.1498
     11 C         142.7144  141.0198  164.0944 C.ar    1  UNL1        0.2014
     12 C         143.5721  142.2101  164.4066 C.ar    1  UNL1        0.0843
     13 C         143.7703  142.6390  165.8302 C.ar    1  UNL1        0.2018
     14 O         144.6281  143.8293  166.1425 O.2     1  UNL1       -0.2864
     15 C         143.1107  141.8776  166.9417 C.ar    1  UNL1        0.0737
     16 C         143.3089  142.3064  168.3653 C.ar    1  UNL1        0.0085
     17 C         142.6494  141.5450  169.4767 C.ar    1  UNL1        0.0299
     18 C         141.7916  140.3547  169.1645 C.ar    1  UNL1        0.1432
     19 F         141.1321  139.5933  170.2759 F       1  UNL1       -0.2041
     20 C         141.5934  139.9259  167.7408 C.ar    1  UNL1        0.0672
     21 C         142.2530  140.6873  166.6295 C.ar    1  UNL1        0.1508
     22 O         142.0548  140.2584  165.2057 O.2     1  UNL1       -0.4486
     23 C         142.8747  138.3149  156.1945 C.3     1  UNL1        0.0992
     24 C         142.4362  133.9481  155.2003 C.ar    1  UNL1        0.1385
     25 C         143.7974  134.5283  155.4462 C.ar    1  UNL1        0.0366
     26 C         143.9436  135.9839  155.7776 C.ar    1  UNL1        0.0002
     27 C         142.7286  136.8593  155.8631 C.ar    1  UNL1       -0.0059
     28 C         141.3674  136.2791  155.6171 C.ar    1  UNL1        0.0002
     29 C         141.2212  134.8235  155.2857 C.ar    1  UNL1        0.0366
     30 O         142.2901  132.4925  154.8689 O.3     1  UNL1       -0.4754
     31 C         143.5000  131.6777  154.5193 C.3     1  UNL1        0.2078
     32 C         143.7489  130.3700  155.2105 C.3     1  UNL1        0.0745
     33 C         144.0893  130.3467  156.6713 C.3     1  UNL1        0.0966
     34 C         143.0407  129.2986  156.8990 C.3     1  UNL1        0.0298
     35 C         145.1379  131.3948  156.4436 C.3     1  UNL1        0.0298
     36 C         144.7924  129.0287  158.7969 C.3     1  UNL1        0.1739
     37 O         144.4297  130.3234  158.1319 O.3     1  UNL1       -0.3557
@<TRIPOS>BOND
     1    36    37    1
     2    37    33    1
     3    33    34    1
     4    33    35    1
     5    33    32    1
     6    32    31    1
     7    31    30    1
     8    30    24    1
     9    24    25   ar
    10    25    26   ar
    11    26    27   ar
    12    27    23    1
    13    23     1    1
    14     1     2    1
    15     2     3    1
    16     3     4    1
    17     4     7    1
    18     7     8   am
    19     8     9    2
    20     8    11    1
    21    11    12   ar
    22    12    13   ar
    23    13    14    2
    24    13    15   ar
    25    15    16   ar
    26    16    17   ar
    27    17    18   ar
    28    18    19    1
    29    18    20   ar
    30    20    21   ar
    31    21    22   ar
    32     4     5    1
    33     5     6    1
    34    27    28   ar
    35    28    29   ar
    36    29    24   ar
    37     6     1    1
    38    22    11   ar
    39    21    15   ar
    40     7    10    1
@<TRIPOS>MOLECULE
*****
 37 40 0 0 0
SMALL
GASTEIGER

@<TRIPOS>ATOM
      1 N         142.3659  138.7929  158.7420 N.3     1  UNL1       -0.2689
      2 C         143.6231  139.1174  159.4930 C.3     1  UNL1        0.0741
      3 C         143.5977  139.2193  160.9894 C.3     1  UNL1        0.0369
      4 C         142.3152  138.9967  161.7346 C.3     1  UNL1        0.0747
      5 C         141.0579  138.6721  160.9836 C.3     1  UNL1        0.0369
      6 C         141.0833  138.5702  159.4873 C.3     1  UNL1        0.0741
      7 N         142.2898  139.0986  163.2309 N.am    1  UNL1       -0.2999
      8 C         142.0179  140.4192  163.8882 C.2     1  UNL1        0.2806
      9 O         141.7714  141.6379  163.0493 O.2     1  UNL1       -0.2668
     10 H         142.4516  138.2987  163.7816 H       1  UNL1        0.1498
     11 C         141.9926  140.5210  165.3846 C.ar    1  UNL1        0.2014
     12 C         142.6557  139.4659  166.2195 C.ar    1  UNL1        0.0843
     13 C         142.6304  139.5677  167.7158 C.ar    1  UNL1        0.2018
     14 O         143.2935  138.5126  168.5506 O.2     1  UNL1       -0.2864
     15 C         141.9420  140.7247  168.3773 C.ar    1  UNL1        0.0737
     16 C         141.9166  140.8265  169.8736 C.ar    1  UNL1        0.0085
     17 C         141.2282  141.9835  170.5350 C.ar    1  UNL1        0.0299
     18 C         140.5651  143.0386  169.7001 C.ar    1  UNL1        0.1432
     19 F         139.8767  144.1956  170.3616 F       1  UNL1       -0.2041
     20 C         140.5904  142.9368  168.2038 C.ar    1  UNL1        0.0672
     21 C         141.2788  141.7798  167.5424 C.ar    1  UNL1        0.1508
     22 O         141.3042  141.6780  166.0460 O.2     1  UNL1       -0.4486
     23 C         142.3912  138.6910  157.2457 C.3     1  UNL1        0.0992
     24 C         141.5885  134.7407  155.2455 C.ar    1  UNL1        0.1385
     25 C         140.5488  135.8215  155.2156 C.ar    1  UNL1        0.0366
     26 C         140.8164  137.1382  155.8823 C.ar    1  UNL1        0.0002
     27 C         142.1237  137.3742  156.5790 C.ar    1  UNL1       -0.0059
     28 C         143.1633  136.2934  156.6089 C.ar    1  UNL1        0.0002
     29 C         142.8957  134.9766  155.9422 C.ar    1  UNL1        0.0366
     30 O         141.3209  133.4239  154.5788 O.3     1  UNL1       -0.4754
     31 C         141.6925  132.1448  155.2685 C.3     1  UNL1        0.2078
     32 C         142.8805  131.3579  154.8002 C.3     1  UNL1        0.0745
     33 C         143.8242  130.7579  155.8000 C.3     1  UNL1        0.0966
     34 C         144.6136  130.1399  154.6843 C.3     1  UNL1        0.0298
     35 C         143.0348  131.3759  156.9158 C.3     1  UNL1        0.0298
     36 C         144.3853  130.0963  158.2489 C.3     1  UNL1        0.1739
     37 O         144.7678  130.1580  156.7999 O.3     1  UNL1       -0.3557
@<TRIPOS>BOND
     1    36    37    1
     2    37    33    1
     3    33    34    1
     4    33    35    1
     5    33    32    1
     6    32    31    1
     7    31    30    1
     8    30    24    1
     9    24    25   ar
    10    25    26   ar
    11    26    27   ar
    12    27    23    1
    13    23     1    1
    14     1     2    1
    15     2     3    1
    16     3     4    1
    17     4     7    1
    18     7     8   am
    19     8     9    2
    20     8    11    1
    21    11    12   ar
    22    12    13   ar
    23    13    14    2
    24    13    15   ar
    25    15    16   ar
    26    16    17   ar
    27    17    18   ar
    28    18    19    1
    29    18    20   ar
    30    20    21   ar
    31    21    22   ar
    32     4     5    1
    33     5     6    1
    34    27    28   ar
    35    28    29   ar
    36    29    24   ar
    37     6     1    1
    38    22    11   ar
    39    21    15   ar
    40     7    10    1
@<TRIPOS>MOLECULE
*****
 37 40 0 0 0
SMALL
GASTEIGER

@<TRIPOS>ATOM
      1 N         139.3156  141.4324  158.7663 N.3     1  UNL1       -0.2689
      2 C         139.8680  141.3566  157.3738 C.3     1  UNL1        0.0741
      3 C         140.2874  140.0338  156.8043 C.3     1  UNL1        0.0369
      4 C         140.1544  138.7868  157.6272 C.3     1  UNL1        0.0747
      5 C         139.6020  138.8626  159.0198 C.3     1  UNL1        0.0369
      6 C         139.1826  140.1853  159.5893 C.3     1  UNL1        0.0741
      7 N         140.5738  137.4641  157.0577 N.am    1  UNL1       -0.2999
      8 C         142.0190  137.0630  157.0782 C.2     1  UNL1        0.2806
      9 O         143.0449  137.9846  157.6683 O.2     1  UNL1       -0.2668
     10 H         139.9005  136.8592  156.6704 H       1  UNL1        0.1498
     11 C         142.4384  135.7402  156.5086 C.ar    1  UNL1        0.2014
     12 C         142.1333  135.4091  155.0777 C.ar    1  UNL1        0.0843
     13 C         142.5526  134.0864  154.5081 C.ar    1  UNL1        0.2018
     14 O         142.2476  133.7554  153.0773 O.2     1  UNL1       -0.2864
     15 C         143.2771  133.0946  155.3694 C.ar    1  UNL1        0.0737
     16 C         143.6964  131.7719  154.7997 C.ar    1  UNL1        0.0085
     17 C         144.4208  130.7802  155.6610 C.ar    1  UNL1        0.0299
     18 C         144.7259  131.1113  157.0918 C.ar    1  UNL1        0.1432
     19 F         145.4503  130.1195  157.9531 F       1  UNL1       -0.2041
     20 C         144.3066  132.4340  157.6614 C.ar    1  UNL1        0.0672
     21 C         143.5822  133.4257  156.8002 C.ar    1  UNL1        0.1508
     22 O         143.1628  134.7485  157.3698 O.2     1  UNL1       -0.4486
     23 C         138.8962  142.7551  159.3359 C.3     1  UNL1        0.0992
     24 C         141.1794  144.5505  162.7730 C.ar    1  UNL1        0.1385
     25 C         141.6676  144.7405  161.3675 C.ar    1  UNL1        0.0366
     26 C         140.9066  144.1420  160.2218 C.ar    1  UNL1        0.0002
     27 C         139.6573  143.3536  160.4816 C.ar    1  UNL1       -0.0059
     28 C         139.1690  143.1637  161.8871 C.ar    1  UNL1        0.0002
     29 C         139.9300  143.7621  163.0328 C.ar    1  UNL1        0.0366
     30 O         141.9404  145.1490  163.9187 O.3     1  UNL1       -0.4754
     31 C         143.4403  145.1336  163.9124 C.3     1  UNL1        0.2078
     32 C         144.1830  144.0980  164.7035 C.3     1  UNL1        0.0745
     33 C         143.9922  142.6417  164.3984 C.3     1  UNL1        0.0966
     34 C         144.6288  142.8398  163.0547 C.3     1  UNL1        0.0298
     35 C         143.3556  142.4436  165.7420 C.3     1  UNL1        0.0298
     36 C         144.9672  140.3538  163.6472 C.3     1  UNL1        0.1739
     37 O         143.8014  141.1856  164.0933 O.3     1  UNL1       -0.3557
@<TRIPOS>BOND
     1    36    37    1
     2    37    33    1
     3    33    34    1
     4    33    35    1
     5    33    32    1
     6    32    31    1
     7    31    30    1
     8    30    24    1
     9    24    25   ar
    10    25    26   ar
    11    26    27   ar
    12    27    23    1
    13    23     1    1
    14     1     2    1
    15     2     3    1
    16     3     4    1
    17     4     7    1
    18     7     8   am
    19     8     9    2
    20     8    11    1
    21    11    12   ar
    22    12    13   ar
    23    13    14    2
    24    13    15   ar
    25    15    16   ar
    26    16    17   ar
    27    17    18   ar
    28    18    19    1
    29    18    20   ar
    30    20    21   ar
    31    21    22   ar
    32     4     5    1
    33     5     6    1
    34    27    28   ar
    35    28    29   ar
    36    29    24   ar
    37     6     1    1
    38    22    11   ar
    39    21    15   ar
    40     7    10    1
@<TRIPOS>MOLECULE
*****
 37 40 0 0 0
SMALL
GASTEIGER

@<TRIPOS>ATOM
      1 N         141.4279  138.2594  157.8736 N.3     1  UNL1       -0.2689
      2 C         142.4916  138.7209  158.8253 C.3     1  UNL1        0.0741
      3 C         142.1251  139.1169  160.2249 C.3     1  UNL1        0.0369
      4 C         140.6951  139.0514  160.6728 C.3     1  UNL1        0.0747
      5 C         139.6314  138.5899  159.7211 C.3     1  UNL1        0.0369
      6 C         139.9978  138.1939  158.3216 C.3     1  UNL1        0.0741
      7 N         140.3287  139.4474  162.0724 N.am    1  UNL1       -0.2999
      8 C         140.3402  138.4239  163.1688 C.2     1  UNL1        0.2806
      9 O         140.7181  137.0043  162.8657 O.2     1  UNL1       -0.2668
     10 H         140.0807  140.3792  162.2714 H       1  UNL1        0.1498
     11 C         139.9738  138.8200  164.5685 C.ar    1  UNL1        0.2014
     12 C         138.7059  138.3080  165.1852 C.ar    1  UNL1        0.0843
     13 C         138.3394  138.7041  166.5848 C.ar    1  UNL1        0.2018
     14 O         137.0715  138.1921  167.2015 O.2     1  UNL1       -0.2864
     15 C         139.2409  139.6121  167.3677 C.ar    1  UNL1        0.0737
     16 C         138.8745  140.0081  168.7673 C.ar    1  UNL1        0.0085
     17 C         139.7759  140.9161  169.5501 C.ar    1  UNL1        0.0299
     18 C         141.0438  141.4280  168.9334 C.ar    1  UNL1        0.1432
     19 F         141.9453  142.3360  169.7163 F       1  UNL1       -0.2041
     20 C         141.4103  141.0320  167.5338 C.ar    1  UNL1        0.0672
     21 C         140.5088  140.1240  166.7510 C.ar    1  UNL1        0.1508
     22 O         140.8752  139.7279  165.3513 O.2     1  UNL1       -0.4486
     23 C         141.7943  137.8634  156.4740 C.3     1  UNL1        0.0992
     24 C         142.8177  133.5815  155.5420 C.ar    1  UNL1        0.1385
     25 C         143.3469  134.2247  156.7895 C.ar    1  UNL1        0.0366
     26 C         143.0058  135.6520  157.1002 C.ar    1  UNL1        0.0002
     27 C         142.1355  136.4361  156.1633 C.ar    1  UNL1       -0.0059
     28 C         141.6063  135.7929  154.9159 C.ar    1  UNL1        0.0002
     29 C         141.9474  134.3656  154.6052 C.ar    1  UNL1        0.0366
     30 O         143.1589  132.1543  155.2314 O.3     1  UNL1       -0.4754
     31 C         142.3494  131.0423  155.8298 C.3     1  UNL1        0.2078
     32 C         142.7931  129.6189  155.6652 C.3     1  UNL1        0.0745
     33 C         141.7776  128.5153  155.6360 C.3     1  UNL1        0.0966
     34 C         140.7564  129.4694  155.0911 C.3     1  UNL1        0.0298
     35 C         142.7987  127.5613  156.1809 C.3     1  UNL1        0.0298
     36 C         139.3257  127.7221  155.3064 C.3     1  UNL1        0.1739
     37 O         140.7621  127.4117  155.6067 O.3     1  UNL1       -0.3557
@<TRIPOS>BOND
     1    36    37    1
     2    37    33    1
     3    33    34    1
     4    33    35    1
     5    33    32    1
     6    32    31    1
     7    31    30    1
     8    30    24    1
     9    24    25   ar
    10    25    26   ar
    11    26    27   ar
    12    27    23    1
    13    23     1    1
    14     1     2    1
    15     2     3    1
    16     3     4    1
    17     4     7    1
    18     7     8   am
    19     8     9    2
    20     8    11    1
    21    11    12   ar
    22    12    13   ar
    23    13    14    2
    24    13    15   ar
    25    15    16   ar
    26    16    17   ar
    27    17    18   ar
    28    18    19    1
    29    18    20   ar
    30    20    21   ar
    31    21    22   ar
    32     4     5    1
    33     5     6    1
    34    27    28   ar
    35    28    29   ar
    36    29    24   ar
    37     6     1    1
    38    22    11   ar
    39    21    15   ar
    40     7    10    1
