@<TRIPOS>MOLECULE
*****
 19 20 0 0 0
SMALL
GASTEIGER

@<TRIPOS>ATOM
      1 C         140.7827  140.7736  167.5573 C.ar    1  UNL1        0.0511
      2 C         141.8767  139.8548  167.1003 C.ar    1  UNL1        0.0163
      3 C         142.7374  139.1535  168.1089 C.ar    1  UNL1        0.0253
      4 C         142.5040  139.3710  169.5746 C.ar    1  UNL1        0.1365
      5 C         141.4100  140.2897  170.0316 C.ar    1  UNL1        0.1541
      6 O         141.1766  140.5072  171.4973 O.3     1  UNL1       -0.5039
      7 C         140.5493  140.9910  169.0229 C.ar    1  UNL1        0.0527
      8 H         141.7142  140.0692  172.1274 H       1  UNL1        0.2923
      9 C         138.9349  140.6940  165.7326 C.3     1  UNL1        0.1122
     10 N         139.9220  141.4749  166.5486 N.pl3   1  UNL1       -0.3040
     11 C         140.0484  142.9571  166.3559 C.3     1  UNL1        0.1122
     12 N         143.3647  138.6697  170.5832 N.2     1  UNL1       -0.1435
     13 N         143.7743  137.2444  170.3581 N.2     1  UNL1       -0.1284
     14 C         144.6350  136.5431  171.3668 C.ar    1  UNL1        0.1838
     15 C         144.4682  135.0708  171.6008 C.ar    1  UNL1        0.0406
     16 C         145.3289  134.3695  172.6094 C.ar    1  UNL1        0.0048
     17 C         146.3563  135.1405  173.3841 C.ar    1  UNL1        0.0208
     18 C         146.5231  136.6127  173.1500 C.ar    1  UNL1        0.1006
     19 N         145.6624  137.3140  172.1414 N.ar    1  UNL1       -0.2236
@<TRIPOS>BOND
     1     9    10    1
     2    10    11    1
     3    10     1    1
     4     1     2   ar
     5     2     3   ar
     6     3     4   ar
     7     4    12    1
     8    12    13    2
     9    13    14    1
    10    14    15   ar
    11    15    16   ar
    12    16    17   ar
    13    17    18   ar
    14    18    19   ar
    15     4     5   ar
    16     5     6    1
    17     5     7   ar
    18     7     1   ar
    19    19    14   ar
    20     6     8    1
@<TRIPOS>MOLECULE
*****
 19 20 0 0 0
SMALL
GASTEIGER

@<TRIPOS>ATOM
      1 C         140.7914  141.9714  167.4509 C.ar    1  UNL1        0.0511
      2 C         140.0250  140.7270  167.1132 C.ar    1  UNL1        0.0163
      3 C         139.3335  139.9546  168.1973 C.ar    1  UNL1        0.0253
      4 C         139.4084  140.4265  169.6191 C.ar    1  UNL1        0.1365
      5 C         140.1749  141.6709  169.9568 C.ar    1  UNL1        0.1541
      6 O         140.2499  142.1429  171.3787 O.3     1  UNL1       -0.5039
      7 C         140.8664  142.4433  168.8728 C.ar    1  UNL1        0.0527
      8 H         139.8179  141.6604  172.0559 H       1  UNL1        0.2923
      9 C         140.6762  143.4562  165.3221 C.3     1  UNL1        0.1122
     10 N         141.4829  142.7438  166.3669 N.pl3   1  UNL1       -0.3040
     11 C         142.9812  142.8038  166.3276 C.3     1  UNL1        0.1122
     12 N         138.7169  139.6541  170.7031 N.2     1  UNL1       -0.1435
     13 N         137.3250  139.1391  170.4860 N.2     1  UNL1       -0.1284
     14 C         136.6335  138.3667  171.5701 C.ar    1  UNL1        0.1838
     15 C         135.2380  138.7343  171.9797 C.ar    1  UNL1        0.0406
     16 C         134.5465  137.9619  173.0637 C.ar    1  UNL1        0.0048
     17 C         135.2505  136.8218  173.7382 C.ar    1  UNL1        0.0208
     18 C         136.6459  136.4543  173.3287 C.ar    1  UNL1        0.1006
     19 N         137.3374  137.2267  172.2446 N.ar    1  UNL1       -0.2236
@<TRIPOS>BOND
     1     9    10    1
     2    10    11    1
     3    10     1    1
     4     1     2   ar
     5     2     3   ar
     6     3     4   ar
     7     4    12    1
     8    12    13    2
     9    13    14    1
    10    14    15   ar
    11    15    16   ar
    12    16    17   ar
    13    17    18   ar
    14    18    19   ar
    15     4     5   ar
    16     5     6    1
    17     5     7   ar
    18     7     1   ar
    19    19    14   ar
    20     6     8    1
@<TRIPOS>MOLECULE
*****
 19 20 0 0 0
SMALL
GASTEIGER

@<TRIPOS>ATOM
      1 C         139.0131  138.9135  164.9171 C.ar    1  UNL1        0.0511
      2 C         138.2430  139.6922  163.8922 C.ar    1  UNL1        0.0163
      3 C         138.5203  139.4893  162.4320 C.ar    1  UNL1        0.0253
      4 C         139.5677  138.5077  161.9969 C.ar    1  UNL1        0.1365
      5 C         140.3378  137.7291  163.0218 C.ar    1  UNL1        0.1541
      6 O         141.3853  136.7475  162.5867 O.3     1  UNL1       -0.5039
      7 C         140.0605  137.9320  164.4819 C.ar    1  UNL1        0.0527
      8 H         141.5586  136.6207  161.6746 H       1  UNL1        0.2923
      9 C         139.5874  140.0555  167.1790 C.3     1  UNL1        0.1122
     10 N         138.7358  139.1164  166.3772 N.pl3   1  UNL1       -0.3040
     11 C         137.6068  138.3802  167.0356 C.3     1  UNL1        0.1122
     12 N         139.8450  138.3049  160.5368 N.2     1  UNL1       -0.1435
     13 N         141.2395  138.4670  160.0086 N.2     1  UNL1       -0.1284
     14 C         141.5168  138.2642  158.5485 C.ar    1  UNL1        0.1838
     15 C         140.3789  138.1095  157.5834 C.ar    1  UNL1        0.0406
     16 C         140.6563  137.9066  156.1233 C.ar    1  UNL1        0.0048
     17 C         142.0715  137.8584  155.6283 C.ar    1  UNL1        0.0208
     18 C         143.2093  138.0131  156.5933 C.ar    1  UNL1        0.1006
     19 N         142.9319  138.2160  158.0535 N.ar    1  UNL1       -0.2236
@<TRIPOS>BOND
     1     9    10    1
     2    10    11    1
     3    10     1    1
     4     1     2   ar
     5     2     3   ar
     6     3     4   ar
     7     4    12    1
     8    12    13    2
     9    13    14    1
    10    14    15   ar
    11    15    16   ar
    12    16    17   ar
    13    17    18   ar
    14    18    19   ar
    15     4     5   ar
    16     5     6    1
    17     5     7   ar
    18     7     1   ar
    19    19    14   ar
    20     6     8    1
@<TRIPOS>MOLECULE
*****
 19 20 0 0 0
SMALL
GASTEIGER

@<TRIPOS>ATOM
      1 C         138.5994  139.2472  164.1429 C.ar    1  UNL1        0.0511
      2 C         138.5767  138.0761  163.2060 C.ar    1  UNL1        0.0163
      3 C         138.1957  138.2727  161.7686 C.ar    1  UNL1        0.0253
      4 C         137.8373  139.6406  161.2681 C.ar    1  UNL1        0.1365
      5 C         137.8600  140.8117  162.2050 C.ar    1  UNL1        0.1541
      6 O         137.5016  142.1797  161.7044 O.3     1  UNL1       -0.5039
      7 C         138.2410  140.6151  163.6424 C.ar    1  UNL1        0.0527
      8 H         137.2636  142.3025  160.8065 H       1  UNL1        0.2923
      9 C         137.9514  138.5990  166.5739 C.3     1  UNL1        0.1122
     10 N         138.9804  139.0506  165.5803 N.pl3   1  UNL1       -0.3040
     11 C         140.3903  139.3055  166.0241 C.3     1  UNL1        0.1122
     12 N         137.4563  139.8372  159.8307 N.2     1  UNL1       -0.1435
     13 N         138.1929  140.8372  158.9896 N.2     1  UNL1       -0.1284
     14 C         137.8119  141.0338  157.5521 C.ar    1  UNL1        0.1838
     15 C         137.3472  142.3785  157.0766 C.ar    1  UNL1        0.0406
     16 C         136.9662  142.5751  155.6392 C.ar    1  UNL1        0.0048
     17 C         137.0499  141.4271  154.6773 C.ar    1  UNL1        0.0208
     18 C         137.5146  140.0826  155.1528 C.ar    1  UNL1        0.1006
     19 N         137.8956  139.8859  156.5903 N.ar    1  UNL1       -0.2236
@<TRIPOS>BOND
     1     9    10    1
     2    10    11    1
     3    10     1    1
     4     1     2   ar
     5     2     3   ar
     6     3     4   ar
     7     4    12    1
     8    12    13    2
     9    13    14    1
    10    14    15   ar
    11    15    16   ar
    12    16    17   ar
    13    17    18   ar
    14    18    19   ar
    15     4     5   ar
    16     5     6    1
    17     5     7   ar
    18     7     1   ar
    19    19    14   ar
    20     6     8    1
@<TRIPOS>MOLECULE
*****
 19 20 0 0 0
SMALL
GASTEIGER

@<TRIPOS>ATOM
      1 C         140.9352  144.0864  163.3782 C.ar    1  UNL1        0.0511
      2 C         141.9276  143.4792  162.4315 C.ar    1  UNL1        0.0163
      3 C         142.0351  143.9931  161.0264 C.ar    1  UNL1        0.0253
      4 C         141.1503  145.1143  160.5680 C.ar    1  UNL1        0.1365
      5 C         140.1579  145.7215  161.5148 C.ar    1  UNL1        0.1541
      6 O         139.2730  146.8427  161.0564 O.3     1  UNL1       -0.5039
      7 C         140.0503  145.2076  162.9199 C.ar    1  UNL1        0.0527
      8 H         139.3402  147.1637  160.1787 H       1  UNL1        0.2923
      9 C         139.5442  143.7305  165.5435 C.3     1  UNL1        0.1122
     10 N         140.8276  143.5725  164.7833 N.pl3   1  UNL1       -0.3040
     11 C         142.0034  142.9007  165.4283 C.3     1  UNL1        0.1122
     12 N         141.2579  145.6282  159.1629 N.2     1  UNL1       -0.1435
     13 N         140.0511  145.6343  158.2721 N.2     1  UNL1       -0.1284
     14 C         140.1587  146.1482  156.8670 C.ar    1  UNL1        0.1838
     15 C         139.2685  147.2642  156.4063 C.ar    1  UNL1        0.0406
     16 C         139.3760  147.7781  155.0012 C.ar    1  UNL1        0.0048
     17 C         140.3739  147.1760  154.0568 C.ar    1  UNL1        0.0208
     18 C         141.2640  146.0601  154.5174 C.ar    1  UNL1        0.1006
     19 N         141.1565  145.5462  155.9225 N.ar    1  UNL1       -0.2236
@<TRIPOS>BOND
     1     9    10    1
     2    10    11    1
     3    10     1    1
     4     1     2   ar
     5     2     3   ar
     6     3     4   ar
     7     4    12    1
     8    12    13    2
     9    13    14    1
    10    14    15   ar
    11    15    16   ar
    12    16    17   ar
    13    17    18   ar
    14    18    19   ar
    15     4     5   ar
    16     5     6    1
    17     5     7   ar
    18     7     1   ar
    19    19    14   ar
    20     6     8    1
@<TRIPOS>MOLECULE
*****
 19 20 0 0 0
SMALL
GASTEIGER

@<TRIPOS>ATOM
      1 C         139.3666  143.2354  160.6808 C.ar    1  UNL1        0.0511
      2 C         140.4877  143.5741  161.6179 C.ar    1  UNL1        0.0163
      3 C         140.3832  143.2194  163.0716 C.ar    1  UNL1        0.0253
      4 C         139.1575  142.5261  163.5882 C.ar    1  UNL1        0.1365
      5 C         138.0364  142.1873  162.6511 C.ar    1  UNL1        0.1541
      6 O         136.8106  141.4939  163.1677 O.3     1  UNL1       -0.5039
      7 C         138.1409  142.5420  161.1974 C.ar    1  UNL1        0.0527
      8 H         136.7453  141.2724  164.0758 H       1  UNL1        0.2923
      9 C         140.2314  144.8125  158.8061 C.3     1  UNL1        0.1122
     10 N         139.4711  143.5900  159.2271 N.pl3   1  UNL1       -0.3040
     11 C         138.8152  142.7222  158.1943 C.3     1  UNL1        0.1122
     12 N         139.0530  142.1714  165.0419 N.2     1  UNL1       -0.1435
     13 N         140.2323  142.3663  165.9482 N.2     1  UNL1       -0.1284
     14 C         140.1278  142.0117  167.4019 C.ar    1  UNL1        0.1838
     15 C         140.4105  143.0480  168.4489 C.ar    1  UNL1        0.0406
     16 C         140.3060  142.6934  169.9026 C.ar    1  UNL1        0.0048
     17 C         139.9188  141.3024  170.3093 C.ar    1  UNL1        0.0208
     18 C         139.6361  140.2661  169.2623 C.ar    1  UNL1        0.1006
     19 N         139.7406  140.6208  167.8086 N.ar    1  UNL1       -0.2236
@<TRIPOS>BOND
     1     9    10    1
     2    10    11    1
     3    10     1    1
     4     1     2   ar
     5     2     3   ar
     6     3     4   ar
     7     4    12    1
     8    12    13    2
     9    13    14    1
    10    14    15   ar
    11    15    16   ar
    12    16    17   ar
    13    17    18   ar
    14    18    19   ar
    15     4     5   ar
    16     5     6    1
    17     5     7   ar
    18     7     1   ar
    19    19    14   ar
    20     6     8    1
@<TRIPOS>MOLECULE
*****
 19 20 0 0 0
SMALL
GASTEIGER

@<TRIPOS>ATOM
      1 C         144.3402  140.9315  161.7167 C.ar    1  UNL1        0.0511
      2 C         144.1859  139.5541  162.2902 C.ar    1  UNL1        0.0163
      3 C         143.6386  138.4452  161.4413 C.ar    1  UNL1        0.0253
      4 C         143.2456  138.7136  160.0188 C.ar    1  UNL1        0.1365
      5 C         143.3999  140.0910  159.4453 C.ar    1  UNL1        0.1541
      6 O         143.0069  140.3595  158.0228 O.3     1  UNL1       -0.5039
      7 C         143.9472  141.1999  160.2943 C.ar    1  UNL1        0.0527
      8 H         142.6650  139.6667  157.4925 H       1  UNL1        0.2923
      9 C         144.5003  143.4619  162.2837 C.3     1  UNL1        0.1122
     10 N         144.8875  142.0405  162.5657 N.pl3   1  UNL1       -0.3040
     11 C         145.8220  141.7280  163.6966 C.3     1  UNL1        0.1122
     12 N         142.6983  137.6046  159.1699 N.2     1  UNL1       -0.1435
     13 N         143.1243  137.4766  157.7374 N.2     1  UNL1       -0.1284
     14 C         142.5770  136.3676  156.8885 C.ar    1  UNL1        0.1838
     15 C         143.1503  134.9858  156.9987 C.ar    1  UNL1        0.0406
     16 C         142.6031  133.8769  156.1497 C.ar    1  UNL1        0.0048
     17 C         141.4825  134.1497  155.1906 C.ar    1  UNL1        0.0208
     18 C         140.9092  135.5314  155.0804 C.ar    1  UNL1        0.1006
     19 N         141.4565  136.6404  155.9293 N.ar    1  UNL1       -0.2236
@<TRIPOS>BOND
     1     9    10    1
     2    10    11    1
     3    10     1    1
     4     1     2   ar
     5     2     3   ar
     6     3     4   ar
     7     4    12    1
     8    12    13    2
     9    13    14    1
    10    14    15   ar
    11    15    16   ar
    12    16    17   ar
    13    17    18   ar
    14    18    19   ar
    15     4     5   ar
    16     5     6    1
    17     5     7   ar
    18     7     1   ar
    19    19    14   ar
    20     6     8    1
@<TRIPOS>MOLECULE
*****
 19 20 0 0 0
SMALL
GASTEIGER

@<TRIPOS>ATOM
      1 C         143.5429  142.2829  160.4665 C.ar    1  UNL1        0.0511
      2 C         142.3030  142.0875  161.2877 C.ar    1  UNL1        0.0163
      3 C         142.4129  141.8169  162.7590 C.ar    1  UNL1        0.0253
      4 C         143.7625  141.7417  163.4091 C.ar    1  UNL1        0.1365
      5 C         145.0024  141.9370  162.5878 C.ar    1  UNL1        0.1541
      6 O         146.3522  141.8618  163.2379 O.3     1  UNL1       -0.5039
      7 C         144.8926  142.2076  161.1165 C.ar    1  UNL1        0.0527
      8 H         146.4208  141.6927  164.1569 H       1  UNL1        0.2923
      9 C         144.6474  142.4496  158.1208 C.3     1  UNL1        0.1122
     10 N         143.4331  142.5535  158.9952 N.pl3   1  UNL1       -0.3040
     11 C         142.1089  142.9280  158.3983 C.3     1  UNL1        0.1122
     12 N         143.8724  141.4710  164.8804 N.2     1  UNL1       -0.1435
     13 N         142.6433  141.4886  165.7400 N.2     1  UNL1       -0.1284
     14 C         142.7531  141.2180  167.2113 C.ar    1  UNL1        0.1838
     15 C         143.2840  142.2773  168.1311 C.ar    1  UNL1        0.0406
     16 C         143.3939  142.0067  169.6024 C.ar    1  UNL1        0.0048
     17 C         142.9728  140.6768  170.1539 C.ar    1  UNL1        0.0208
     18 C         142.4419  139.6175  169.2340 C.ar    1  UNL1        0.1006
     19 N         142.3320  139.8882  167.7627 N.ar    1  UNL1       -0.2236
@<TRIPOS>BOND
     1     9    10    1
     2    10    11    1
     3    10     1    1
     4     1     2   ar
     5     2     3   ar
     6     3     4   ar
     7     4    12    1
     8    12    13    2
     9    13    14    1
    10    14    15   ar
    11    15    16   ar
    12    16    17   ar
    13    17    18   ar
    14    18    19   ar
    15     4     5   ar
    16     5     6    1
    17     5     7   ar
    18     7     1   ar
    19    19    14   ar
    20     6     8    1
@<TRIPOS>MOLECULE
*****
 19 20 0 0 0
SMALL
GASTEIGER

@<TRIPOS>ATOM
      1 C         141.1476  138.3935  160.7212 C.ar    1  UNL1        0.0511
      2 C         142.3822  138.0344  161.4937 C.ar    1  UNL1        0.0163
      3 C         142.3714  138.0887  162.9926 C.ar    1  UNL1        0.0253
      4 C         141.1259  138.5022  163.7191 C.ar    1  UNL1        0.1365
      5 C         139.8914  138.8614  162.9467 C.ar    1  UNL1        0.1541
      6 O         138.6458  139.2749  163.6732 O.3     1  UNL1       -0.5039
      7 C         139.9022  138.8070  161.4477 C.ar    1  UNL1        0.0527
      8 H         138.6390  139.3089  164.6095 H       1  UNL1        0.2923
      9 C         139.8963  138.5951  158.4533 C.3     1  UNL1        0.1122
     10 N         141.1585  138.3392  159.2222 N.pl3   1  UNL1       -0.3040
     11 C         142.4315  138.0289  158.4922 C.3     1  UNL1        0.1122
     12 N         141.1151  138.5566  165.2181 N.2     1  UNL1       -0.1435
     13 N         140.7785  139.8389  165.9197 N.2     1  UNL1       -0.1284
     14 C         140.7677  139.8932  167.4187 C.ar    1  UNL1        0.1838
     15 C         139.5001  140.2272  168.1479 C.ar    1  UNL1        0.0406
     16 C         139.4892  140.2815  169.6469 C.ar    1  UNL1        0.0048
     17 C         140.7460  140.0019  170.4166 C.ar    1  UNL1        0.0208
     18 C         142.0135  139.6680  169.6874 C.ar    1  UNL1        0.1006
     19 N         142.0244  139.6137  168.1884 N.ar    1  UNL1       -0.2236
@<TRIPOS>BOND
     1     9    10    1
     2    10    11    1
     3    10     1    1
     4     1     2   ar
     5     2     3   ar
     6     3     4   ar
     7     4    12    1
     8    12    13    2
     9    13    14    1
    10    14    15   ar
    11    15    16   ar
    12    16    17   ar
    13    17    18   ar
    14    18    19   ar
    15     4     5   ar
    16     5     6    1
    17     5     7   ar
    18     7     1   ar
    19    19    14   ar
    20     6     8    1
