@<TRIPOS>MOLECULE
*****
 39 42 0 0 0
SMALL
GASTEIGER

@<TRIPOS>ATOM
      1 C         140.1407  138.2150  158.1044 C.3     1  UNL1        0.1183
      2 N         139.4555  139.0377  159.1550 N.am    1  UNL1       -0.2425
      3 C         139.2120  138.4614  160.5183 C.3     1  UNL1        0.1183
      4 C         138.5268  139.2840  161.5689 C.3     1  UNL1        0.1146
      5 C         138.7584  138.0180  162.3393 C.3     1  UNL1        0.0252
      6 C         138.0851  140.6830  161.2562 C.3     1  UNL1        0.2040
      7 O         138.3287  141.2593  159.8929 O.3     1  UNL1       -0.4351
      8 C         139.0139  140.4366  158.8423 C.2     1  UNL1        0.4049
      9 O         139.2574  141.0130  157.4790 O.2     1  UNL1       -0.2262
     10 N         137.9221  139.6669  162.8870 N.am    1  UNL1       -0.2867
     11 C         138.7946  139.8135  164.0983 C.2     1  UNL1        0.3059
     12 O         140.2721  139.5771  163.9914 O.2     1  UNL1       -0.2524
     13 N         138.1898  140.1964  165.4165 N.am    1  UNL1       -0.2485
     14 H         136.9524  139.8221  162.9572 H       1  UNL1        0.1510
     15 H         137.2201  140.3516  165.4867 H       1  UNL1        0.1583
     16 C         139.0624  140.3430  166.6277 C.ar    1  UNL1        0.1664
     17 N         140.2662  141.2303  166.7449 N.ar    1  UNL1       -0.2283
     18 C         140.8323  141.0637  168.1239 C.ar    1  UNL1        0.0667
     19 C         139.9784  140.0734  168.8591 C.ar    1  UNL1        0.0528
     20 S         138.8846  139.6280  167.9343 S.2     1  UNL1       -0.0511
     21 C         142.0402  141.7644  168.6718 C.3     1  UNL1        0.0360
     22 C         141.1739  142.9001  169.1294 C.3     1  UNL1        0.0059
     23 C         142.9066  140.6286  168.2141 C.3     1  UNL1        0.0059
     24 C         143.2481  142.4650  169.2196 C.3     1  UNL1        0.0059
     25 C         137.3999  141.5056  162.3068 C.3     1  UNL1        0.1181
     26 N         138.1346  142.6280  162.9779 N.3     1  UNL1       -0.2696
     27 C         137.5042  143.3549  164.1287 C.3     1  UNL1        0.0722
     28 C         138.2389  144.4773  164.7998 C.3     1  UNL1        0.0174
     29 C         139.6040  144.8729  164.3202 C.3     1  UNL1        0.0031
     30 C         140.2344  144.1461  163.1694 C.3     1  UNL1        0.0204
     31 C         139.4997  143.0236  162.4982 C.3     1  UNL1        0.0725
     32 C         141.5995  144.5417  162.6897 C.3     1  UNL1        0.0277
     33 C         142.7950  143.7185  163.0679 C.ar    1  UNL1       -0.0220
     34 C         143.0687  143.4120  164.5106 C.ar    1  UNL1       -0.0020
     35 C         144.2642  142.5888  164.8887 C.ar    1  UNL1        0.0293
     36 C         145.1862  142.0721  163.8242 C.ar    1  UNL1        0.1401
     37 F         146.3817  141.2490  164.2024 F       1  UNL1       -0.2042
     38 C         144.9126  142.3786  162.3816 C.ar    1  UNL1        0.0293
     39 C         143.7170  143.2018  162.0034 C.ar    1  UNL1       -0.0020
@<TRIPOS>BOND
     1     1     2    1
     2     2     3    1
     3     3     4    1
     4     4     5    1
     5     4    10    1
     6    10    11   am
     7    11    12    2
     8    11    13   am
     9    13    16    1
    10    16    17   ar
    11    17    18   ar
    12    18    21    1
    13    21    22    1
    14    21    23    1
    15    21    24    1
    16    18    19   ar
    17    19    20   ar
    18     4     6    1
    19     6    25    1
    20    25    26    1
    21    26    27    1
    22    27    28    1
    23    28    29    1
    24    29    30    1
    25    30    32    1
    26    32    33    1
    27    33    34   ar
    28    34    35   ar
    29    35    36   ar
    30    36    37    1
    31    36    38   ar
    32    38    39   ar
    33    30    31    1
    34     6     7    1
    35     7     8    1
    36     8     9    2
    37     8     2   am
    38    20    16   ar
    39    31    26    1
    40    39    33   ar
    41    10    14    1
    42    13    15    1
@<TRIPOS>MOLECULE
*****
 39 42 0 0 0
SMALL
GASTEIGER

@<TRIPOS>ATOM
      1 C         142.0518  141.0844  156.9431 C.3     1  UNL1        0.1183
      2 N         141.0482  141.4583  157.9933 N.am    1  UNL1       -0.2425
      3 C         140.4639  140.4010  158.8826 C.3     1  UNL1        0.1183
      4 C         139.4603  140.7749  159.9328 C.3     1  UNL1        0.1146
      5 C         139.5409  139.2951  160.1646 C.3     1  UNL1        0.0252
      6 C         139.0409  142.2061  160.0938 C.3     1  UNL1        0.2040
      7 O         139.6252  143.2633  159.2045 O.3     1  UNL1       -0.4351
      8 C         140.6288  142.8894  158.1543 C.2     1  UNL1        0.4049
      9 O         141.2131  143.9467  157.2650 O.2     1  UNL1       -0.2262
     10 N         138.4847  140.6348  161.0635 N.am    1  UNL1       -0.2867
     11 C         138.9834  140.4781  162.4695 C.2     1  UNL1        0.3059
     12 O         140.4578  140.4615  162.7448 O.2     1  UNL1       -0.2524
     13 N         138.0076  140.3380  163.6001 N.am    1  UNL1       -0.2485
     14 H         137.5170  140.6457  160.8828 H       1  UNL1        0.1510
     15 H         137.0399  140.3489  163.4195 H       1  UNL1        0.1583
     16 C         138.5064  140.1813  165.0060 C.ar    1  UNL1        0.1664
     17 N         139.2720  141.2061  165.7893 N.ar    1  UNL1       -0.2283
     18 C         139.5660  140.6305  167.1429 C.ar    1  UNL1        0.0667
     19 C         138.9820  139.2498  167.1963 C.ar    1  UNL1        0.0528
     20 S         138.3272  138.9722  165.8756 S.2     1  UNL1       -0.0511
     21 C         140.3128  141.3153  168.2490 C.3     1  UNL1        0.0360
     22 C         140.5530  142.4962  167.3558 C.3     1  UNL1        0.0059
     23 C         140.0725  140.1345  169.1423 C.3     1  UNL1        0.0059
     24 C         141.0595  142.0001  169.3551 C.3     1  UNL1        0.0059
     25 C         138.0373  142.5799  161.1440 C.3     1  UNL1        0.1181
     26 N         138.4666  143.3715  162.3436 N.3     1  UNL1       -0.2696
     27 C         137.4871  143.6578  163.4430 C.3     1  UNL1        0.0722
     28 C         137.9163  144.4493  164.6426 C.3     1  UNL1        0.0174
     29 C         139.3251  144.9547  164.7429 C.3     1  UNL1        0.0031
     30 C         140.3046  144.6685  163.6436 C.3     1  UNL1        0.0204
     31 C         139.8753  143.8769  162.4438 C.3     1  UNL1        0.0725
     32 C         141.7133  145.1738  163.7438 C.3     1  UNL1        0.0277
     33 C         142.8604  144.2078  163.7155 C.ar    1  UNL1       -0.0220
     34 C         143.6893  144.0638  162.4735 C.ar    1  UNL1       -0.0020
     35 C         144.8364  143.0978  162.4452 C.ar    1  UNL1        0.0293
     36 C         145.1548  142.2757  163.6588 C.ar    1  UNL1        0.1401
     37 F         146.3019  141.3097  163.6305 F       1  UNL1       -0.2042
     38 C         144.3260  142.4196  164.9008 C.ar    1  UNL1        0.0293
     39 C         143.1788  143.3857  164.9291 C.ar    1  UNL1       -0.0020
@<TRIPOS>BOND
     1     1     2    1
     2     2     3    1
     3     3     4    1
     4     4     5    1
     5     4    10    1
     6    10    11   am
     7    11    12    2
     8    11    13   am
     9    13    16    1
    10    16    17   ar
    11    17    18   ar
    12    18    21    1
    13    21    22    1
    14    21    23    1
    15    21    24    1
    16    18    19   ar
    17    19    20   ar
    18     4     6    1
    19     6    25    1
    20    25    26    1
    21    26    27    1
    22    27    28    1
    23    28    29    1
    24    29    30    1
    25    30    32    1
    26    32    33    1
    27    33    34   ar
    28    34    35   ar
    29    35    36   ar
    30    36    37    1
    31    36    38   ar
    32    38    39   ar
    33    30    31    1
    34     6     7    1
    35     7     8    1
    36     8     9    2
    37     8     2   am
    38    20    16   ar
    39    31    26    1
    40    39    33   ar
    41    10    14    1
    42    13    15    1
@<TRIPOS>MOLECULE
*****
 39 42 0 0 0
SMALL
GASTEIGER

@<TRIPOS>ATOM
      1 C         144.0391  141.8347  157.8389 C.3     1  UNL1        0.1183
      2 N         143.7777  140.8961  158.9795 N.am    1  UNL1       -0.2425
      3 C         144.3225  141.2027  160.3430 C.3     1  UNL1        0.1183
      4 C         144.0612  140.2641  161.4835 C.3     1  UNL1        0.1146
      5 C         144.8747  141.3094  162.1874 C.3     1  UNL1        0.0252
      6 C         143.2550  139.0190  161.2605 C.3     1  UNL1        0.2040
      7 O         142.7102  138.7125  159.8971 O.3     1  UNL1       -0.4351
      8 C         142.9715  139.6510  158.7565 C.2     1  UNL1        0.4049
      9 O         142.4267  139.3444  157.3930 O.2     1  UNL1       -0.2262
     10 N         144.0824  139.6887  162.8685 N.am    1  UNL1       -0.2867
     11 C         143.3496  140.3805  163.9795 C.2     1  UNL1        0.3059
     12 O         142.5955  141.6479  163.7055 O.2     1  UNL1       -0.2524
     13 N         143.3709  139.8049  165.3646 N.am    1  UNL1       -0.2485
     14 H         144.5774  138.8569  163.0484 H       1  UNL1        0.1510
     15 H         143.8659  138.9731  165.5445 H       1  UNL1        0.1583
     16 C         142.6381  140.4968  166.4755 C.ar    1  UNL1        0.1664
     17 N         141.4656  139.9487  167.2339 N.ar    1  UNL1       -0.2283
     18 C         141.0518  140.9713  168.2502 C.ar    1  UNL1        0.0667
     19 C         141.9686  142.1515  168.1201 C.ar    1  UNL1        0.0528
     20 S         142.9489  141.8581  167.0233 S.2     1  UNL1       -0.0511
     21 C         139.9200  140.8373  169.2255 C.3     1  UNL1        0.0360
     22 C         140.6248  141.7647  170.1707 C.3     1  UNL1        0.0059
     23 C         139.2153  139.9099  168.2804 C.3     1  UNL1        0.0059
     24 C         138.7883  140.7034  170.2008 C.3     1  UNL1        0.0059
     25 C         142.9937  138.0805  162.4011 C.3     1  UNL1        0.1181
     26 N         141.6557  138.0784  163.0791 N.3     1  UNL1       -0.2696
     27 C         141.3271  137.0166  164.0866 C.3     1  UNL1        0.0722
     28 C         139.9891  137.0145  164.7646 C.3     1  UNL1        0.0174
     29 C         138.9797  138.0741  164.4353 C.3     1  UNL1        0.0031
     30 C         139.3083  139.1357  163.4279 C.3     1  UNL1        0.0204
     31 C         140.6463  139.1379  162.7498 C.3     1  UNL1        0.0725
     32 C         138.2988  140.1953  163.0985 C.3     1  UNL1        0.0277
     33 C         138.3819  141.5407  163.7565 C.ar    1  UNL1       -0.0220
     34 C         137.5682  142.6851  163.2289 C.ar    1  UNL1       -0.0020
     35 C         137.6512  144.0305  163.8868 C.ar    1  UNL1        0.0293
     36 C         138.5480  144.2316  165.0723 C.ar    1  UNL1        0.1401
     37 F         138.6310  145.5770  165.7303 F       1  UNL1       -0.2042
     38 C         139.3617  143.0873  165.5999 C.ar    1  UNL1        0.0293
     39 C         139.2786  141.7418  164.9420 C.ar    1  UNL1       -0.0020
@<TRIPOS>BOND
     1     1     2    1
     2     2     3    1
     3     3     4    1
     4     4     5    1
     5     4    10    1
     6    10    11   am
     7    11    12    2
     8    11    13   am
     9    13    16    1
    10    16    17   ar
    11    17    18   ar
    12    18    21    1
    13    21    22    1
    14    21    23    1
    15    21    24    1
    16    18    19   ar
    17    19    20   ar
    18     4     6    1
    19     6    25    1
    20    25    26    1
    21    26    27    1
    22    27    28    1
    23    28    29    1
    24    29    30    1
    25    30    32    1
    26    32    33    1
    27    33    34   ar
    28    34    35   ar
    29    35    36   ar
    30    36    37    1
    31    36    38   ar
    32    38    39   ar
    33    30    31    1
    34     6     7    1
    35     7     8    1
    36     8     9    2
    37     8     2   am
    38    20    16   ar
    39    31    26    1
    40    39    33   ar
    41    10    14    1
    42    13    15    1
@<TRIPOS>MOLECULE
*****
 39 42 0 0 0
SMALL
GASTEIGER

@<TRIPOS>ATOM
      1 C         140.3561  142.5942  154.7735 C.3     1  UNL1        0.1183
      2 N         140.3829  143.0963  156.1868 N.am    1  UNL1       -0.2425
      3 C         141.6887  143.2179  156.9148 C.3     1  UNL1        0.1183
      4 C         141.7155  143.7199  158.3281 C.3     1  UNL1        0.1146
      5 C         143.1805  143.4855  158.1071 C.3     1  UNL1        0.0252
      6 C         140.4365  144.1003  159.0132 C.3     1  UNL1        0.2040
      7 O         139.1308  143.9787  158.2852 O.3     1  UNL1       -0.4351
      8 C         139.1040  143.4767  156.8719 C.2     1  UNL1        0.4049
      9 O         137.7981  143.3551  156.1438 O.2     1  UNL1       -0.2262
     10 N         142.2511  144.1405  159.6645 N.am    1  UNL1       -0.2867
     11 C         142.7158  143.1056  160.6459 C.2     1  UNL1        0.3059
     12 O         142.6449  141.6500  160.2907 O.2     1  UNL1       -0.2524
     13 N         143.2515  143.5264  161.9823 N.am    1  UNL1       -0.2485
     14 H         142.2977  145.0959  159.8976 H       1  UNL1        0.1510
     15 H         143.2981  144.4818  162.2154 H       1  UNL1        0.1583
     16 C         143.7162  142.4914  162.9636 C.ar    1  UNL1        0.1664
     17 N         142.8578  141.7790  163.9664 N.ar    1  UNL1       -0.2283
     18 C         143.7318  140.8344  164.7370 C.ar    1  UNL1        0.0667
     19 C         145.1305  140.9630  164.2104 C.ar    1  UNL1        0.0528
     20 S         145.1208  141.9871  163.1144 S.2     1  UNL1       -0.0511
     21 C         143.2856  139.9215  165.8404 C.3     1  UNL1        0.0360
     22 C         144.0050  138.7793  165.1863 C.3     1  UNL1        0.0059
     23 C         142.5662  141.0637  166.4946 C.3     1  UNL1        0.0059
     24 C         142.8394  139.0086  166.9438 C.3     1  UNL1        0.0059
     25 C         140.4633  144.6024  160.4265 C.3     1  UNL1        0.1181
     26 N         139.4914  144.0618  161.4330 N.3     1  UNL1       -0.2696
     27 C         138.8932  144.9738  162.4629 C.3     1  UNL1        0.0722
     28 C         137.9212  144.4333  163.4694 C.3     1  UNL1        0.0174
     29 C         137.5474  142.9808  163.4460 C.3     1  UNL1        0.0031
     30 C         138.1454  142.0689  162.4162 C.3     1  UNL1        0.0204
     31 C         139.1175  142.6094  161.4096 C.3     1  UNL1        0.0725
     32 C         137.7715  140.6164  162.3928 C.3     1  UNL1        0.0277
     33 C         138.6820  139.5975  163.0116 C.ar    1  UNL1       -0.0220
     34 C         138.5840  139.2963  164.4779 C.ar    1  UNL1       -0.0020
     35 C         139.4945  138.2774  165.0966 C.ar    1  UNL1        0.0293
     36 C         140.5029  137.5598  164.2493 C.ar    1  UNL1        0.1401
     37 F         141.4134  136.5409  164.8681 F       1  UNL1       -0.2042
     38 C         140.6010  137.8610  162.7832 C.ar    1  UNL1        0.0293
     39 C         139.6905  138.8799  162.1643 C.ar    1  UNL1       -0.0020
@<TRIPOS>BOND
     1     1     2    1
     2     2     3    1
     3     3     4    1
     4     4     5    1
     5     4    10    1
     6    10    11   am
     7    11    12    2
     8    11    13   am
     9    13    16    1
    10    16    17   ar
    11    17    18   ar
    12    18    21    1
    13    21    22    1
    14    21    23    1
    15    21    24    1
    16    18    19   ar
    17    19    20   ar
    18     4     6    1
    19     6    25    1
    20    25    26    1
    21    26    27    1
    22    27    28    1
    23    28    29    1
    24    29    30    1
    25    30    32    1
    26    32    33    1
    27    33    34   ar
    28    34    35   ar
    29    35    36   ar
    30    36    37    1
    31    36    38   ar
    32    38    39   ar
    33    30    31    1
    34     6     7    1
    35     7     8    1
    36     8     9    2
    37     8     2   am
    38    20    16   ar
    39    31    26    1
    40    39    33   ar
    41    10    14    1
    42    13    15    1
@<TRIPOS>MOLECULE
*****
 39 42 0 0 0
SMALL
GASTEIGER

@<TRIPOS>ATOM
      1 C         137.9829  140.3757  158.2022 C.3     1  UNL1        0.1183
      2 N         139.0046  139.9558  159.2170 N.am    1  UNL1       -0.2425
      3 C         138.5646  139.4374  160.5540 C.3     1  UNL1        0.1183
      4 C         139.5863  139.0176  161.5689 C.3     1  UNL1        0.1146
      5 C         138.3277  138.7396  162.3360 C.3     1  UNL1        0.0252
      6 C         141.0480  139.1162  161.2467 C.3     1  UNL1        0.2040
      7 O         141.4879  139.6346  159.9097 O.3     1  UNL1       -0.4351
      8 C         140.4662  140.0545  158.8949 C.2     1  UNL1        0.4049
      9 O         140.9062  140.5729  157.5578 O.2     1  UNL1       -0.2262
     10 N         140.1708  138.5012  162.8501 N.am    1  UNL1       -0.2867
     11 C         140.0700  139.3187  164.1037 C.2     1  UNL1        0.3059
     12 O         139.3847  140.6527  164.0760 O.2     1  UNL1       -0.2524
     13 N         140.6546  138.8022  165.3850 N.am    1  UNL1       -0.2485
     14 H         140.6206  137.6256  162.8683 H       1  UNL1        0.1510
     15 H         141.1044  137.9267  165.4032 H       1  UNL1        0.1583
     16 C         140.5537  139.6198  166.6385 C.ar    1  UNL1        0.1664
     17 N         141.6342  140.4855  167.2158 N.ar    1  UNL1       -0.2283
     18 C         141.1031  141.1161  168.4689 C.ar    1  UNL1        0.0667
     19 C         139.6943  140.6400  168.6662 C.ar    1  UNL1        0.0528
     20 S         139.3548  139.7152  167.5349 S.2     1  UNL1       -0.0511
     21 C         141.8496  142.0573  169.3671 C.3     1  UNL1        0.0360
     22 C         142.9660  141.0622  169.4821 C.3     1  UNL1        0.0059
     23 C         140.7331  143.0525  169.2521 C.3     1  UNL1        0.0059
     24 C         142.5960  142.9986  170.2653 C.3     1  UNL1        0.0059
     25 C         142.0697  138.6963  162.2615 C.3     1  UNL1        0.1181
     26 N         142.9873  139.7161  162.8681 N.3     1  UNL1       -0.2696
     27 C         144.3435  139.3059  163.3607 C.3     1  UNL1        0.0722
     28 C         145.2611  140.3257  163.9673 C.3     1  UNL1        0.0174
     29 C         144.8226  141.7556  164.0814 C.3     1  UNL1        0.0031
     30 C         143.4665  142.1658  163.5888 C.3     1  UNL1        0.0204
     31 C         142.5488  141.1460  162.9822 C.3     1  UNL1        0.0725
     32 C         143.0280  143.5957  163.7029 C.3     1  UNL1        0.0277
     33 C         141.6288  143.9188  164.1361 C.ar    1  UNL1       -0.0220
     34 C         141.0821  143.3332  165.4043 C.ar    1  UNL1       -0.0020
     35 C         139.6829  143.6563  165.8375 C.ar    1  UNL1        0.0293
     36 C         138.8302  144.5650  165.0025 C.ar    1  UNL1        0.1401
     37 F         137.4310  144.8881  165.4357 F       1  UNL1       -0.2042
     38 C         139.3768  145.1506  163.7343 C.ar    1  UNL1        0.0293
     39 C         140.7761  144.8275  163.3011 C.ar    1  UNL1       -0.0020
@<TRIPOS>BOND
     1     1     2    1
     2     2     3    1
     3     3     4    1
     4     4     5    1
     5     4    10    1
     6    10    11   am
     7    11    12    2
     8    11    13   am
     9    13    16    1
    10    16    17   ar
    11    17    18   ar
    12    18    21    1
    13    21    22    1
    14    21    23    1
    15    21    24    1
    16    18    19   ar
    17    19    20   ar
    18     4     6    1
    19     6    25    1
    20    25    26    1
    21    26    27    1
    22    27    28    1
    23    28    29    1
    24    29    30    1
    25    30    32    1
    26    32    33    1
    27    33    34   ar
    28    34    35   ar
    29    35    36   ar
    30    36    37    1
    31    36    38   ar
    32    38    39   ar
    33    30    31    1
    34     6     7    1
    35     7     8    1
    36     8     9    2
    37     8     2   am
    38    20    16   ar
    39    31    26    1
    40    39    33   ar
    41    10    14    1
    42    13    15    1
@<TRIPOS>MOLECULE
*****
 39 42 0 0 0
SMALL
GASTEIGER

@<TRIPOS>ATOM
      1 C         141.8549  145.7776  157.9651 C.3     1  UNL1        0.1183
      2 N         140.9893  144.8847  158.8039 N.am    1  UNL1       -0.2425
      3 C         140.6553  145.2729  160.2137 C.3     1  UNL1        0.1183
      4 C         139.7897  144.3801  161.0524 C.3     1  UNL1        0.1146
      5 C         140.0522  145.4843  162.0331 C.3     1  UNL1        0.0252
      6 C         139.2581  143.0989  160.4814 C.3     1  UNL1        0.2040
      7 O         139.5922  142.7107  159.0716 O.3     1  UNL1       -0.4351
      8 C         140.4578  143.6036  158.2328 C.2     1  UNL1        0.4049
      9 O         140.7919  143.2153  156.8230 O.2     1  UNL1       -0.2262
     10 N         139.0153  143.8707  162.2318 N.am    1  UNL1       -0.2867
     11 C         139.7405  143.3582  163.4407 C.2     1  UNL1        0.3059
     12 O         141.2402  143.3550  163.4702 O.2     1  UNL1       -0.2524
     13 N         138.9660  142.8489  164.6200 N.am    1  UNL1       -0.2485
     14 H         138.0310  143.8729  162.2124 H       1  UNL1        0.1510
     15 H         137.9817  142.8510  164.6006 H       1  UNL1        0.1583
     16 C         139.6913  142.3364  165.8288 C.ar    1  UNL1        0.1664
     17 N         140.3876  143.1740  166.8602 N.ar    1  UNL1       -0.2283
     18 C         140.9743  142.2517  167.8874 C.ar    1  UNL1        0.0667
     19 C         140.6406  140.8440  167.4908 C.ar    1  UNL1        0.0528
     20 S         139.8477  140.8964  166.2186 S.2     1  UNL1       -0.0511
     21 C         141.7572  142.6645  169.0984 C.3     1  UNL1        0.0360
     22 C         140.5784  143.4493  169.5930 C.3     1  UNL1        0.0059
     23 C         142.9360  141.8797  168.6038 C.3     1  UNL1        0.0059
     24 C         142.5401  143.0773  170.3095 C.3     1  UNL1        0.0059
     25 C         138.3925  142.2060  161.3201 C.3     1  UNL1        0.1181
     26 N         138.7529  140.7605  161.4945 N.3     1  UNL1       -0.2696
     27 C         137.6824  139.7105  161.4544 C.3     1  UNL1        0.0722
     28 C         138.0428  138.2649  161.6287 C.3     1  UNL1        0.0174
     29 C         139.4737  137.8693  161.8433 C.3     1  UNL1        0.0031
     30 C         140.5442  138.9192  161.8835 C.3     1  UNL1        0.0204
     31 C         140.1838  140.3649  161.7091 C.3     1  UNL1        0.0725
     32 C         141.9751  138.5236  162.0980 C.3     1  UNL1        0.0277
     33 C         142.9334  139.4890  162.7302 C.ar    1  UNL1       -0.0220
     34 C         142.8595  139.7633  164.2031 C.ar    1  UNL1       -0.0020
     35 C         143.8178  140.7286  164.8352 C.ar    1  UNL1        0.0293
     36 C         144.8502  141.4197  163.9945 C.ar    1  UNL1        0.1401
     37 F         145.8085  142.3850  164.6267 F       1  UNL1       -0.2042
     38 C         144.9241  141.1454  162.5217 C.ar    1  UNL1        0.0293
     39 C         143.9658  140.1800  161.8895 C.ar    1  UNL1       -0.0020
@<TRIPOS>BOND
     1     1     2    1
     2     2     3    1
     3     3     4    1
     4     4     5    1
     5     4    10    1
     6    10    11   am
     7    11    12    2
     8    11    13   am
     9    13    16    1
    10    16    17   ar
    11    17    18   ar
    12    18    21    1
    13    21    22    1
    14    21    23    1
    15    21    24    1
    16    18    19   ar
    17    19    20   ar
    18     4     6    1
    19     6    25    1
    20    25    26    1
    21    26    27    1
    22    27    28    1
    23    28    29    1
    24    29    30    1
    25    30    32    1
    26    32    33    1
    27    33    34   ar
    28    34    35   ar
    29    35    36   ar
    30    36    37    1
    31    36    38   ar
    32    38    39   ar
    33    30    31    1
    34     6     7    1
    35     7     8    1
    36     8     9    2
    37     8     2   am
    38    20    16   ar
    39    31    26    1
    40    39    33   ar
    41    10    14    1
    42    13    15    1
@<TRIPOS>MOLECULE
*****
 39 42 0 0 0
SMALL
GASTEIGER

@<TRIPOS>ATOM
      1 C         141.0300  145.3349  154.9419 C.3     1  UNL1        0.1183
      2 N         141.1680  145.2127  156.4305 N.am    1  UNL1       -0.2425
      3 C         142.1795  144.2720  157.0152 C.3     1  UNL1        0.1183
      4 C         142.3176  144.1498  158.5038 C.3     1  UNL1        0.1146
      5 C         143.3654  143.1708  158.0637 C.3     1  UNL1        0.0252
      6 C         141.4442  144.9683  159.4077 C.3     1  UNL1        0.2040
      7 O         140.4327  145.9090  158.8231 O.3     1  UNL1       -0.4351
      8 C         140.2946  146.0312  157.3344 C.2     1  UNL1        0.4049
      9 O         139.2830  146.9719  156.7498 O.2     1  UNL1       -0.2262
     10 N         142.8196  143.6875  159.8396 N.am    1  UNL1       -0.2867
     11 C         142.3984  142.3524  160.3781 C.2     1  UNL1        0.3059
     12 O         141.4751  141.4795  159.5809 O.2     1  UNL1       -0.2524
     13 N         142.9005  141.8902  161.7139 N.am    1  UNL1       -0.2485
     14 H         143.4256  144.2604  160.3628 H       1  UNL1        0.1510
     15 H         143.5065  142.4631  162.2372 H       1  UNL1        0.1583
     16 C         142.4792  140.5551  162.2524 C.ar    1  UNL1        0.1664
     17 N         141.2549  140.2827  163.0751 N.ar    1  UNL1       -0.2283
     18 C         141.2272  138.8172  163.3939 C.ar    1  UNL1        0.0667
     19 C         142.4345  138.1839  162.7683 C.ar    1  UNL1        0.0528
     20 S         143.2083  139.2580  162.0628 S.2     1  UNL1       -0.0511
     21 C         140.1767  138.1094  164.1973 C.3     1  UNL1        0.0360
     22 C         139.1396  139.0620  163.6806 C.3     1  UNL1        0.0059
     23 C         141.2138  137.1568  164.7140 C.3     1  UNL1        0.0059
     24 C         139.1262  137.4015  165.0007 C.3     1  UNL1        0.0059
     25 C         141.5822  144.8460  160.8964 C.3     1  UNL1        0.1181
     26 N         140.4841  144.2182  161.7024 N.3     1  UNL1       -0.2696
     27 C         139.2417  143.7252  161.0215 C.3     1  UNL1        0.0722
     28 C         138.1435  143.0973  161.8275 C.3     1  UNL1        0.0174
     29 C         138.2876  142.9624  163.3145 C.3     1  UNL1        0.0031
     30 C         139.5299  143.4553  163.9954 C.3     1  UNL1        0.0204
     31 C         140.6282  144.0832  163.1894 C.3     1  UNL1        0.0725
     32 C         139.6740  143.3204  165.4823 C.3     1  UNL1        0.0277
     33 C         140.4786  142.1933  166.0587 C.ar    1  UNL1       -0.0220
     34 C         141.9721  142.1896  165.9186 C.ar    1  UNL1       -0.0020
     35 C         142.7767  141.0625  166.4949 C.ar    1  UNL1        0.0293
     36 C         142.0879  139.9390  167.2114 C.ar    1  UNL1        0.1401
     37 F         142.8924  138.8119  167.7877 F       1  UNL1       -0.2042
     38 C         140.5945  139.9427  167.3515 C.ar    1  UNL1        0.0293
     39 C         139.7898  141.0698  166.7752 C.ar    1  UNL1       -0.0020
@<TRIPOS>BOND
     1     1     2    1
     2     2     3    1
     3     3     4    1
     4     4     5    1
     5     4    10    1
     6    10    11   am
     7    11    12    2
     8    11    13   am
     9    13    16    1
    10    16    17   ar
    11    17    18   ar
    12    18    21    1
    13    21    22    1
    14    21    23    1
    15    21    24    1
    16    18    19   ar
    17    19    20   ar
    18     4     6    1
    19     6    25    1
    20    25    26    1
    21    26    27    1
    22    27    28    1
    23    28    29    1
    24    29    30    1
    25    30    32    1
    26    32    33    1
    27    33    34   ar
    28    34    35   ar
    29    35    36   ar
    30    36    37    1
    31    36    38   ar
    32    38    39   ar
    33    30    31    1
    34     6     7    1
    35     7     8    1
    36     8     9    2
    37     8     2   am
    38    20    16   ar
    39    31    26    1
    40    39    33   ar
    41    10    14    1
    42    13    15    1
@<TRIPOS>MOLECULE
*****
 39 42 0 0 0
SMALL
GASTEIGER

@<TRIPOS>ATOM
      1 C         137.2179  138.0306  161.0552 C.3     1  UNL1        0.1183
      2 N         138.5985  138.1360  161.6321 N.am    1  UNL1       -0.2425
      3 C         138.8173  137.9130  163.0992 C.3     1  UNL1        0.1183
      4 C         140.1979  138.0184  163.6761 C.3     1  UNL1        0.1146
      5 C         139.4221  137.6866  164.9162 C.3     1  UNL1        0.0252
      6 C         141.3597  138.3468  162.7859 C.3     1  UNL1        0.2040
      7 O         141.1409  138.5698  161.3189 O.3     1  UNL1       -0.4351
      8 C         139.7602  138.4644  160.7420 C.2     1  UNL1        0.4049
      9 O         139.5414  138.6874  159.2748 O.2     1  UNL1       -0.2262
     10 N         141.3090  138.0085  164.6837 N.am    1  UNL1       -0.2867
     11 C         141.2500  138.9190  165.8743 C.2     1  UNL1        0.3059
     12 O         140.0798  139.8395  166.0573 O.2     1  UNL1       -0.2524
     13 N         142.3612  138.9091  166.8819 N.am    1  UNL1       -0.2485
     14 H         142.0771  137.4044  164.5637 H       1  UNL1        0.1510
     15 H         143.1292  138.3050  166.7619 H       1  UNL1        0.1583
     16 C         142.3021  139.8196  168.0725 C.ar    1  UNL1        0.1664
     17 N         141.7542  141.2159  168.0882 N.ar    1  UNL1       -0.2283
     18 C         141.8940  141.7531  169.4817 C.ar    1  UNL1        0.0667
     19 C         142.5282  140.6887  170.3273 C.ar    1  UNL1        0.0528
     20 S         142.7805  139.4938  169.4563 S.2     1  UNL1       -0.0511
     21 C         141.4734  143.1154  169.9479 C.3     1  UNL1        0.0360
     22 C         142.7823  143.2749  170.6628 C.3     1  UNL1        0.0059
     23 C         140.1644  142.9558  169.2329 C.3     1  UNL1        0.0059
     24 C         141.0527  144.4776  170.4140 C.3     1  UNL1        0.0059
     25 C         142.7403  138.4522  163.3628 C.3     1  UNL1        0.1181
     26 N         143.4189  139.7873  163.4452 N.3     1  UNL1       -0.2696
     27 C         144.8615  139.8720  163.8472 C.3     1  UNL1        0.0722
     28 C         145.5401  141.2072  163.9295 C.3     1  UNL1        0.0174
     29 C         144.7760  142.4578  163.6098 C.3     1  UNL1        0.0031
     30 C         143.3334  142.3732  163.2078 C.3     1  UNL1        0.0204
     31 C         142.6548  141.0379  163.1255 C.3     1  UNL1        0.0725
     32 C         142.5693  143.6238  162.8881 C.3     1  UNL1        0.0277
     33 C         141.2266  143.8626  163.5126 C.ar    1  UNL1       -0.0220
     34 C         141.0007  143.5266  164.9570 C.ar    1  UNL1       -0.0020
     35 C         139.6579  143.7654  165.5814 C.ar    1  UNL1        0.0293
     36 C         138.5411  144.3402  164.7616 C.ar    1  UNL1        0.1401
     37 F         137.1983  144.5791  165.3860 F       1  UNL1       -0.2042
     38 C         138.7669  144.6763  163.3173 C.ar    1  UNL1        0.0293
     39 C         140.1097  144.4375  162.6928 C.ar    1  UNL1       -0.0020
@<TRIPOS>BOND
     1     1     2    1
     2     2     3    1
     3     3     4    1
     4     4     5    1
     5     4    10    1
     6    10    11   am
     7    11    12    2
     8    11    13   am
     9    13    16    1
    10    16    17   ar
    11    17    18   ar
    12    18    21    1
    13    21    22    1
    14    21    23    1
    15    21    24    1
    16    18    19   ar
    17    19    20   ar
    18     4     6    1
    19     6    25    1
    20    25    26    1
    21    26    27    1
    22    27    28    1
    23    28    29    1
    24    29    30    1
    25    30    32    1
    26    32    33    1
    27    33    34   ar
    28    34    35   ar
    29    35    36   ar
    30    36    37    1
    31    36    38   ar
    32    38    39   ar
    33    30    31    1
    34     6     7    1
    35     7     8    1
    36     8     9    2
    37     8     2   am
    38    20    16   ar
    39    31    26    1
    40    39    33   ar
    41    10    14    1
    42    13    15    1
@<TRIPOS>MOLECULE
*****
 39 42 0 0 0
SMALL
GASTEIGER

@<TRIPOS>ATOM
      1 C         140.1363  142.7935  171.0466 C.3     1  UNL1        0.1183
      2 N         140.7978  142.0806  169.9046 N.am    1  UNL1       -0.2425
      3 C         140.0063  141.1337  169.0521 C.3     1  UNL1        0.1183
      4 C         140.6679  140.4209  167.9101 C.3     1  UNL1        0.1146
      5 C         139.2768  139.8732  167.7883 C.3     1  UNL1        0.0252
      6 C         142.1209  140.6549  167.6206 C.3     1  UNL1        0.2040
      7 O         142.9124  141.6018  168.4731 O.3     1  UNL1       -0.4351
      8 C         142.2509  142.3147  169.6151 C.2     1  UNL1        0.4049
      9 O         143.0425  143.2616  170.4677 O.2     1  UNL1       -0.2262
     10 N         140.8462  139.5178  166.7258 N.am    1  UNL1       -0.2867
     11 C         140.1174  139.8054  165.4467 C.2     1  UNL1        0.3059
     12 O         139.2101  140.9962  165.3519 O.2     1  UNL1       -0.2524
     13 N         140.2958  138.9022  164.2624 N.am    1  UNL1       -0.2485
     14 H         141.4416  138.7362  166.7880 H       1  UNL1        0.1510
     15 H         140.8912  138.1206  164.3246 H       1  UNL1        0.1583
     16 C         139.5669  139.1898  162.9834 C.ar    1  UNL1        0.1664
     17 N         139.6759  140.4453  162.1697 N.ar    1  UNL1       -0.2283
     18 C         138.7775  140.3041  160.9768 C.ar    1  UNL1        0.0667
     19 C         138.1132  138.9613  161.0533 C.ar    1  UNL1        0.0528
     20 S         138.6011  138.2727  162.2934 S.2     1  UNL1       -0.0511
     21 C         138.5783  141.3261  159.8971 C.3     1  UNL1        0.0360
     22 C         138.7862  140.2666  158.8559 C.3     1  UNL1        0.0059
     23 C         138.3704  142.3856  160.9384 C.3     1  UNL1        0.0059
     24 C         138.3791  142.3481  158.8174 C.3     1  UNL1        0.0059
     25 C         142.7824  139.9420  166.4786 C.3     1  UNL1        0.1181
     26 N         143.4973  140.7259  165.4182 N.3     1  UNL1       -0.2696
     27 C         144.6331  140.1026  164.6621 C.3     1  UNL1        0.0722
     28 C         145.3479  140.8865  163.6018 C.3     1  UNL1        0.0174
     29 C         144.9271  142.2938  163.2975 C.3     1  UNL1        0.0031
     30 C         143.7914  142.9171  164.0535 C.3     1  UNL1        0.0204
     31 C         143.0765  142.1332  165.1139 C.3     1  UNL1        0.0725
     32 C         143.3706  144.3243  163.7492 C.3     1  UNL1        0.0277
     33 C         142.4485  144.5992  162.5986 C.ar    1  UNL1       -0.0220
     34 C         141.2329  145.4549  162.7994 C.ar    1  UNL1       -0.0020
     35 C         140.3107  145.7297  161.6488 C.ar    1  UNL1        0.0293
     36 C         140.6041  145.1490  160.2972 C.ar    1  UNL1        0.1401
     37 F         139.6820  145.4238  159.1466 F       1  UNL1       -0.2042
     38 C         141.8196  144.2933  160.0963 C.ar    1  UNL1        0.0293
     39 C         142.7418  144.0184  161.2470 C.ar    1  UNL1       -0.0020
@<TRIPOS>BOND
     1     1     2    1
     2     2     3    1
     3     3     4    1
     4     4     5    1
     5     4    10    1
     6    10    11   am
     7    11    12    2
     8    11    13   am
     9    13    16    1
    10    16    17   ar
    11    17    18   ar
    12    18    21    1
    13    21    22    1
    14    21    23    1
    15    21    24    1
    16    18    19   ar
    17    19    20   ar
    18     4     6    1
    19     6    25    1
    20    25    26    1
    21    26    27    1
    22    27    28    1
    23    28    29    1
    24    29    30    1
    25    30    32    1
    26    32    33    1
    27    33    34   ar
    28    34    35   ar
    29    35    36   ar
    30    36    37    1
    31    36    38   ar
    32    38    39   ar
    33    30    31    1
    34     6     7    1
    35     7     8    1
    36     8     9    2
    37     8     2   am
    38    20    16   ar
    39    31    26    1
    40    39    33   ar
    41    10    14    1
    42    13    15    1
