@<TRIPOS>MOLECULE
*****
 34 38 0 0 0
SMALL
GASTEIGER

@<TRIPOS>ATOM
      1 N         138.4438  141.6401  159.8361 N.3     1  UNL1       -0.2673
      2 C         138.9928  140.2539  159.6718 C.3     1  UNL1        0.1035
      3 C         139.1158  139.3500  160.8625 C.3     1  UNL1        0.1470
      4 C         139.2388  138.4460  162.0532 C.3     1  UNL1        0.1037
      5 N         138.8127  138.9282  163.4081 N.3     1  UNL1       -0.2646
      6 C         138.2636  140.3145  163.5724 C.3     1  UNL1        0.1037
      7 C         138.1407  141.2184  162.3817 C.3     1  UNL1        0.1470
      8 C         138.0177  142.1223  161.1911 C.3     1  UNL1        0.1035
      9 O         138.6897  139.8322  162.2174 O.3     1  UNL1       -0.3530
     10 C         138.3208  142.5441  158.6454 C.3     1  UNL1        0.0913
     11 C         139.4816  143.3980  158.2289 C.3     1  UNL1        0.1087
     12 N         139.8177  144.6370  159.0048 N.3     1  UNL1       -0.1780
     13 H         140.2577  145.2840  158.3503 H       1  UNL1        0.1488
     14 S         140.7188  144.5516  160.2009 S.O2    1  UNL1        0.0603
     15 O         139.9233  145.6285  160.8771 O.2     1  UNL1       -0.1530
     16 O         141.5143  143.4746  159.5247 O.2     1  UNL1       -0.1530
     17 C         143.4220  144.2952  163.7893 C.ar    1  UNL1        0.0685
     18 C         142.1036  145.0030  163.8926 C.ar    1  UNL1        0.0116
     19 C         141.2024  145.0885  162.6965 C.ar    1  UNL1        0.0206
     20 C         141.6198  144.4661  161.3970 C.ar    1  UNL1        0.1220
     21 C         142.9383  143.7583  161.2938 C.ar    1  UNL1        0.0206
     22 C         143.8394  143.6729  162.4899 C.ar    1  UNL1        0.0116
     23 N         145.2242  144.1244  166.1816 N.1     1  UNL1       -0.1908
     24 C         144.3231  144.2098  164.9854 C.1     1  UNL1        0.1004
     25 C         138.9357  138.0243  164.5988 C.3     1  UNL1        0.1025
     26 C         138.7836  138.5822  165.9829 C.ar    1  UNL1        0.0344
     27 C         137.6313  138.3358  166.9111 C.ar    1  UNL1        0.1766
     28 O         137.8927  139.0857  168.1837 O.2     1  UNL1       -0.4507
     29 C         139.2066  139.7955  168.0419 C.ar    1  UNL1        0.1452
     30 C         139.9727  140.6851  168.9756 C.ar    1  UNL1        0.0375
     31 C         141.2893  141.2633  168.5492 C.ar    1  UNL1        0.0031
     32 C         141.8400  140.9522  167.1890 C.ar    1  UNL1        0.0002
     33 C         141.0738  140.0626  166.2553 C.ar    1  UNL1        0.0029
     34 C         139.7571  139.4843  166.6818 C.ar    1  UNL1        0.0349
@<TRIPOS>BOND
     1    23    24    3
     2    24    17    1
     3    17    18   ar
     4    18    19   ar
     5    19    20   ar
     6    20    14    1
     7    14    15    2
     8    14    16    2
     9    14    12    1
    10    12    11    1
    11    11    10    1
    12    10     1    1
    13     1     2    1
    14     2     3    1
    15     3     4    1
    16     4     5    1
    17     5    25    1
    18    25    26    1
    19    26    27   ar
    20    27    28   ar
    21    28    29   ar
    22    29    30   ar
    23    30    31   ar
    24    31    32   ar
    25    32    33   ar
    26    33    34   ar
    27     5     6    1
    28     6     7    1
    29     7     8    1
    30     7     9    1
    31    20    21   ar
    32    21    22   ar
    33    22    17   ar
    34     8     1    1
    35     9     3    1
    36    34    26   ar
    37    34    29   ar
    38    12    13    1
@<TRIPOS>MOLECULE
*****
 34 38 0 0 0
SMALL
GASTEIGER

@<TRIPOS>ATOM
      1 N         144.3088  141.6324  160.0634 N.3     1  UNL1       -0.2673
      2 C         143.7198  140.2577  160.1785 C.3     1  UNL1        0.1035
      3 C         143.5656  139.6184  161.5266 C.3     1  UNL1        0.1470
      4 C         143.4113  138.9789  162.8747 C.3     1  UNL1        0.1037
      5 N         143.8461  139.7142  164.1077 N.3     1  UNL1       -0.2646
      6 C         144.4351  141.0890  163.9926 C.3     1  UNL1        0.1037
      7 C         144.5893  141.7283  162.6445 C.3     1  UNL1        0.1470
      8 C         144.7436  142.3677  161.2965 C.3     1  UNL1        0.1035
      9 O         144.0003  140.3537  162.7596 O.3     1  UNL1       -0.3530
     10 C         144.4631  142.2719  158.7153 C.3     1  UNL1        0.0913
     11 C         143.4875  143.3188  158.2657 C.3     1  UNL1        0.1087
     12 N         142.0161  143.1097  158.4694 N.3     1  UNL1       -0.1780
     13 H         141.5395  143.6428  157.7421 H       1  UNL1        0.1488
     14 S         141.3780  143.4890  159.7728 S.O2    1  UNL1        0.0603
     15 O         140.5483  142.2402  159.7301 O.2     1  UNL1       -0.1530
     16 O         142.2077  144.7378  159.8156 O.2     1  UNL1       -0.1530
     17 C         139.4637  144.6269  163.6832 C.ar    1  UNL1        0.0685
     18 C         140.8759  145.0399  163.3912 C.ar    1  UNL1        0.0116
     19 C         141.5140  144.6606  162.0878 C.ar    1  UNL1        0.0206
     20 C         140.7399  143.8683  161.0763 C.ar    1  UNL1        0.1220
     21 C         139.3277  143.4553  161.3682 C.ar    1  UNL1        0.0206
     22 C         138.6896  143.8346  162.6717 C.ar    1  UNL1        0.0116
     23 N         138.1875  145.3856  166.2900 N.1     1  UNL1       -0.1908
     24 C         138.8257  145.0062  164.9866 C.1     1  UNL1        0.1004
     25 C         143.6918  139.0748  165.4558 C.3     1  UNL1        0.1025
     26 C         142.5538  139.4722  166.3486 C.ar    1  UNL1        0.0344
     27 C         142.6599  140.2921  167.6002 C.ar    1  UNL1        0.1766
     28 O         141.2816  140.4461  168.1717 O.2     1  UNL1       -0.4507
     29 C         140.3237  139.7213  167.2733 C.ar    1  UNL1        0.1452
     30 C         138.8370  139.5317  167.3355 C.ar    1  UNL1        0.0375
     31 C         138.1367  138.7402  166.2712 C.ar    1  UNL1        0.0031
     32 C         138.9229  138.1383  165.1444 C.ar    1  UNL1        0.0002
     33 C         140.4096  138.3279  165.0821 C.ar    1  UNL1        0.0029
     34 C         141.1099  139.1194  166.1465 C.ar    1  UNL1        0.0349
@<TRIPOS>BOND
     1    23    24    3
     2    24    17    1
     3    17    18   ar
     4    18    19   ar
     5    19    20   ar
     6    20    14    1
     7    14    15    2
     8    14    16    2
     9    14    12    1
    10    12    11    1
    11    11    10    1
    12    10     1    1
    13     1     2    1
    14     2     3    1
    15     3     4    1
    16     4     5    1
    17     5    25    1
    18    25    26    1
    19    26    27   ar
    20    27    28   ar
    21    28    29   ar
    22    29    30   ar
    23    30    31   ar
    24    31    32   ar
    25    32    33   ar
    26    33    34   ar
    27     5     6    1
    28     6     7    1
    29     7     8    1
    30     7     9    1
    31    20    21   ar
    32    21    22   ar
    33    22    17   ar
    34     8     1    1
    35     9     3    1
    36    34    26   ar
    37    34    29   ar
    38    12    13    1
@<TRIPOS>MOLECULE
*****
 34 38 0 0 0
SMALL
GASTEIGER

@<TRIPOS>ATOM
      1 N         140.2665  139.0758  158.7618 N.3     1  UNL1       -0.2673
      2 C         140.2388  140.5728  158.6705 C.3     1  UNL1        0.1035
      3 C         139.5234  141.3749  159.7168 C.3     1  UNL1        0.1470
      4 C         138.8079  142.1770  160.7631 C.3     1  UNL1        0.1037
      5 N         138.1201  141.4822  161.9007 N.3     1  UNL1       -0.2646
      6 C         138.1478  139.9852  161.9920 C.3     1  UNL1        0.1037
      7 C         138.8633  139.1831  160.9457 C.3     1  UNL1        0.1470
      8 C         139.5787  138.3810  159.8994 C.3     1  UNL1        0.1035
      9 O         138.8356  140.6800  160.8544 O.3     1  UNL1       -0.3530
     10 C         140.9820  138.2737  157.7155 C.3     1  UNL1        0.0913
     11 C         142.3811  137.7939  157.9648 C.3     1  UNL1        0.1087
     12 N         143.3479  138.6595  158.7172 N.3     1  UNL1       -0.1780
     13 H         144.2843  138.3652  158.4395 H       1  UNL1        0.1488
     14 S         143.3271  138.6791  160.2168 S.O2    1  UNL1        0.0603
     15 O         143.6361  140.1468  160.2020 O.2     1  UNL1       -0.1530
     16 O         143.0180  137.2114  160.2317 O.2     1  UNL1       -0.1530
     17 C         143.2644  138.7377  164.7160 C.ar    1  UNL1        0.0685
     18 C         144.3632  139.4372  163.9721 C.ar    1  UNL1        0.0116
     19 C         144.3841  139.4176  162.4723 C.ar    1  UNL1        0.0206
     20 C         143.3062  138.6986  161.7165 C.ar    1  UNL1        0.1220
     21 C         142.2074  137.9992  162.4605 C.ar    1  UNL1        0.0206
     22 C         142.1865  138.0187  163.9602 C.ar    1  UNL1        0.0116
     23 N         143.2227  138.7769  167.7155 N.1     1  UNL1       -0.1908
     24 C         143.2435  138.7573  166.2157 C.1     1  UNL1        0.1004
     25 C         137.4047  142.2843  162.9470 C.3     1  UNL1        0.1025
     26 C         138.1810  142.9397  164.0506 C.ar    1  UNL1        0.0344
     27 C         138.3095  144.4162  164.2815 C.ar    1  UNL1        0.1766
     28 O         139.1730  144.6228  165.4907 O.2     1  UNL1       -0.4507
     29 C         139.5780  143.2738  166.0069 C.ar    1  UNL1        0.1452
     30 C         140.4258  142.8583  167.1725 C.ar    1  UNL1        0.0375
     31 C         140.6605  141.4027  167.4480 C.ar    1  UNL1        0.0031
     32 C         140.0474  140.3625  166.5579 C.ar    1  UNL1        0.0002
     33 C         139.1996  140.7780  165.3924 C.ar    1  UNL1        0.0029
     34 C         138.9649  142.2337  165.1169 C.ar    1  UNL1        0.0349
@<TRIPOS>BOND
     1    23    24    3
     2    24    17    1
     3    17    18   ar
     4    18    19   ar
     5    19    20   ar
     6    20    14    1
     7    14    15    2
     8    14    16    2
     9    14    12    1
    10    12    11    1
    11    11    10    1
    12    10     1    1
    13     1     2    1
    14     2     3    1
    15     3     4    1
    16     4     5    1
    17     5    25    1
    18    25    26    1
    19    26    27   ar
    20    27    28   ar
    21    28    29   ar
    22    29    30   ar
    23    30    31   ar
    24    31    32   ar
    25    32    33   ar
    26    33    34   ar
    27     5     6    1
    28     6     7    1
    29     7     8    1
    30     7     9    1
    31    20    21   ar
    32    21    22   ar
    33    22    17   ar
    34     8     1    1
    35     9     3    1
    36    34    26   ar
    37    34    29   ar
    38    12    13    1
@<TRIPOS>MOLECULE
*****
 34 38 0 0 0
SMALL
GASTEIGER

@<TRIPOS>ATOM
      1 N         143.6262  141.2172  160.7192 N.3     1  UNL1       -0.2673
      2 C         142.8160  142.4142  161.1199 C.3     1  UNL1        0.1035
      3 C         142.8474  142.9004  162.5385 C.3     1  UNL1        0.1470
      4 C         142.8789  143.3867  163.9572 C.3     1  UNL1        0.1037
      5 N         143.7206  142.6759  164.9752 N.3     1  UNL1       -0.2646
      6 C         144.5309  141.4788  164.5744 C.3     1  UNL1        0.1037
      7 C         144.4994  140.9926  163.1558 C.3     1  UNL1        0.1470
      8 C         144.4680  140.5064  161.7372 C.3     1  UNL1        0.1035
      9 O         143.6892  142.1896  163.5565 O.3     1  UNL1       -0.3530
     10 C         143.5948  140.7309  159.3005 C.3     1  UNL1        0.0913
     11 C         142.5841  139.7049  158.8816 C.3     1  UNL1        0.1087
     12 N         142.5613  138.3599  159.5454 N.3     1  UNL1       -0.1780
     13 H         142.2366  137.6919  158.8462 H       1  UNL1        0.1488
     14 S         141.7259  138.1430  160.7722 S.O2    1  UNL1        0.0603
     15 O         140.5321  138.7048  160.0586 O.2     1  UNL1       -0.1530
     16 O         142.9197  137.5813  161.4858 O.2     1  UNL1       -0.1530
     17 C         139.2198  137.4925  164.4527 C.ar    1  UNL1        0.0685
     18 C         140.7159  137.4390  164.5450 C.ar    1  UNL1        0.0116
     19 C         141.5514  137.6559  163.3182 C.ar    1  UNL1        0.0206
     20 C         140.8906  137.9262  161.9990 C.ar    1  UNL1        0.1220
     21 C         139.3943  137.9797  161.9067 C.ar    1  UNL1        0.0206
     22 C         138.5590  137.7628  163.1335 C.ar    1  UNL1        0.0116
     23 N         137.5490  137.0589  166.9064 N.1     1  UNL1       -0.1908
     24 C         138.3844  137.2757  165.6795 C.1     1  UNL1        0.1004
     25 C         143.7521  143.1621  166.3938 C.3     1  UNL1        0.1025
     26 C         143.0824  142.3661  167.4745 C.ar    1  UNL1        0.0344
     27 C         143.5915  142.1744  168.8724 C.ar    1  UNL1        0.1766
     28 O         142.6098  141.3118  169.6090 O.2     1  UNL1       -0.4507
     29 C         141.4941  140.9704  168.6662 C.ar    1  UNL1        0.1452
     30 C         140.2499  140.1505  168.8384 C.ar    1  UNL1        0.0375
     31 C         139.2979  139.9820  167.6917 C.ar    1  UNL1        0.0031
     32 C         139.5900  140.6336  166.3725 C.ar    1  UNL1        0.0002
     33 C         140.8342  141.4536  166.2002 C.ar    1  UNL1        0.0029
     34 C         141.7862  141.6220  167.3470 C.ar    1  UNL1        0.0349
@<TRIPOS>BOND
     1    23    24    3
     2    24    17    1
     3    17    18   ar
     4    18    19   ar
     5    19    20   ar
     6    20    14    1
     7    14    15    2
     8    14    16    2
     9    14    12    1
    10    12    11    1
    11    11    10    1
    12    10     1    1
    13     1     2    1
    14     2     3    1
    15     3     4    1
    16     4     5    1
    17     5    25    1
    18    25    26    1
    19    26    27   ar
    20    27    28   ar
    21    28    29   ar
    22    29    30   ar
    23    30    31   ar
    24    31    32   ar
    25    32    33   ar
    26    33    34   ar
    27     5     6    1
    28     6     7    1
    29     7     8    1
    30     7     9    1
    31    20    21   ar
    32    21    22   ar
    33    22    17   ar
    34     8     1    1
    35     9     3    1
    36    34    26   ar
    37    34    29   ar
    38    12    13    1
@<TRIPOS>MOLECULE
*****
 34 38 0 0 0
SMALL
GASTEIGER

@<TRIPOS>ATOM
      1 N         140.0818  139.5326  159.8638 N.3     1  UNL1       -0.2673
      2 C         141.4840  139.0515  160.0922 C.3     1  UNL1        0.1035
      3 C         142.1393  138.1477  159.0904 C.3     1  UNL1        0.1470
      4 C         142.7947  137.2438  158.0886 C.3     1  UNL1        0.1037
      5 N         142.0478  136.8211  156.8584 N.3     1  UNL1       -0.2646
      6 C         140.6455  137.3024  156.6300 C.3     1  UNL1        0.1037
      7 C         139.9902  138.2062  157.6318 C.3     1  UNL1        0.1470
      8 C         139.3349  139.1100  158.6336 C.3     1  UNL1        0.1035
      9 O         141.3924  137.7250  157.8602 O.3     1  UNL1       -0.3530
     10 C         139.4265  140.4365  160.8656 C.3     1  UNL1        0.0913
     11 C         139.9389  140.4915  162.2743 C.3     1  UNL1        0.1087
     12 N         139.1788  139.8140  163.3759 N.3     1  UNL1       -0.1780
     13 H         138.1881  139.9647  163.1859 H       1  UNL1        0.1488
     14 S         139.4116  140.2128  164.8030 S.O2    1  UNL1        0.0603
     15 O         138.2589  139.3537  165.2310 O.2     1  UNL1       -0.1530
     16 O         140.5642  141.0719  164.3749 O.2     1  UNL1       -0.1530
     17 C         140.1099  141.4093  169.0844 C.ar    1  UNL1        0.0685
     18 C         139.4525  140.0982  168.7698 C.ar    1  UNL1        0.0116
     19 C         139.2198  139.6994  167.3426 C.ar    1  UNL1        0.0206
     20 C         139.6443  140.6116  166.2301 C.ar    1  UNL1        0.1220
     21 C         140.3017  141.9227  166.5448 C.ar    1  UNL1        0.0206
     22 C         140.5344  142.3215  167.9720 C.ar    1  UNL1        0.0116
     23 N         140.5753  142.2069  171.9388 N.1     1  UNL1       -0.1908
     24 C         140.3426  141.8081  170.5116 C.1     1  UNL1        0.1004
     25 C         142.7031  135.9173  155.8566 C.3     1  UNL1        0.1025
     26 C         142.4083  134.4466  155.8676 C.ar    1  UNL1        0.0344
     27 C         141.2643  133.7715  155.1708 C.ar    1  UNL1        0.1766
     28 O         141.3546  132.3004  155.4499 O.2     1  UNL1       -0.4507
     29 C         142.5544  132.0664  156.3192 C.ar    1  UNL1        0.1452
     30 C         143.1382  130.8169  156.9091 C.ar    1  UNL1        0.0375
     31 C         144.3730  130.8938  157.7571 C.ar    1  UNL1        0.0031
     32 C         145.0242  132.2202  158.0153 C.ar    1  UNL1        0.0002
     33 C         144.4405  133.4697  157.4254 C.ar    1  UNL1        0.0029
     34 C         143.2056  133.3928  156.5774 C.ar    1  UNL1        0.0349
@<TRIPOS>BOND
     1    23    24    3
     2    24    17    1
     3    17    18   ar
     4    18    19   ar
     5    19    20   ar
     6    20    14    1
     7    14    15    2
     8    14    16    2
     9    14    12    1
    10    12    11    1
    11    11    10    1
    12    10     1    1
    13     1     2    1
    14     2     3    1
    15     3     4    1
    16     4     5    1
    17     5    25    1
    18    25    26    1
    19    26    27   ar
    20    27    28   ar
    21    28    29   ar
    22    29    30   ar
    23    30    31   ar
    24    31    32   ar
    25    32    33   ar
    26    33    34   ar
    27     5     6    1
    28     6     7    1
    29     7     8    1
    30     7     9    1
    31    20    21   ar
    32    21    22   ar
    33    22    17   ar
    34     8     1    1
    35     9     3    1
    36    34    26   ar
    37    34    29   ar
    38    12    13    1
@<TRIPOS>MOLECULE
*****
 34 38 0 0 0
SMALL
GASTEIGER

@<TRIPOS>ATOM
      1 N         140.9991  138.9982  159.4573 N.3     1  UNL1       -0.2673
      2 C         142.2304  139.8504  159.5449 C.3     1  UNL1        0.1035
      3 C         143.0484  139.8592  160.8022 C.3     1  UNL1        0.1470
      4 C         143.8665  139.8680  162.0594 C.3     1  UNL1        0.1037
      5 N         143.4533  139.0246  163.2290 N.3     1  UNL1       -0.2646
      6 C         142.2220  138.1723  163.1413 C.3     1  UNL1        0.1037
      7 C         141.4040  138.1636  161.8841 C.3     1  UNL1        0.1470
      8 C         140.5859  138.1548  160.6268 C.3     1  UNL1        0.1035
      9 O         142.6352  139.0158  161.9717 O.3     1  UNL1       -0.3530
     10 C         140.1810  138.9894  158.2000 C.3     1  UNL1        0.0913
     11 C         139.0103  139.9167  158.0605 C.3     1  UNL1        0.1087
     12 N         137.9135  139.8992  159.0836 N.3     1  UNL1       -0.1780
     13 H         137.0481  140.1214  158.5915 H       1  UNL1        0.1488
     14 S         137.9821  140.8114  160.2724 S.O2    1  UNL1        0.0603
     15 O         137.3188  139.7628  161.1153 O.2     1  UNL1       -0.1530
     16 O         138.6454  141.8599  159.4295 O.2     1  UNL1       -0.1530
     17 C         138.1879  143.5479  163.8388 C.ar    1  UNL1        0.0685
     18 C         138.6259  144.0386  162.4907 C.ar    1  UNL1        0.0116
     19 C         138.5573  143.1264  161.3018 C.ar    1  UNL1        0.0206
     20 C         138.0507  141.7235  161.4611 C.ar    1  UNL1        0.1220
     21 C         137.6127  141.2329  162.8093 C.ar    1  UNL1        0.0206
     22 C         137.6814  142.1450  163.9981 C.ar    1  UNL1        0.0116
     23 N         138.3252  145.3723  166.2163 N.1     1  UNL1       -0.1908
     24 C         138.2565  144.4601  165.0275 C.1     1  UNL1        0.1004
     25 C         144.2714  139.0333  164.4862 C.3     1  UNL1        0.1025
     26 C         143.6072  139.2623  165.8116 C.ar    1  UNL1        0.0344
     27 C         143.7206  138.3791  167.0188 C.ar    1  UNL1        0.1766
     28 O         142.8966  138.9856  168.1158 O.2     1  UNL1       -0.4507
     29 C         142.2740  140.2436  167.5865 C.ar    1  UNL1        0.1452
     30 C         141.3640  141.2554  168.2173 C.ar    1  UNL1        0.0375
     31 C         140.8931  142.4382  167.4241 C.ar    1  UNL1        0.0031
     32 C         141.3324  142.6092  166.0000 C.ar    1  UNL1        0.0002
     33 C         142.2424  141.5974  165.3692 C.ar    1  UNL1        0.0029
     34 C         142.7133  140.4145  166.1625 C.ar    1  UNL1        0.0349
@<TRIPOS>BOND
     1    23    24    3
     2    24    17    1
     3    17    18   ar
     4    18    19   ar
     5    19    20   ar
     6    20    14    1
     7    14    15    2
     8    14    16    2
     9    14    12    1
    10    12    11    1
    11    11    10    1
    12    10     1    1
    13     1     2    1
    14     2     3    1
    15     3     4    1
    16     4     5    1
    17     5    25    1
    18    25    26    1
    19    26    27   ar
    20    27    28   ar
    21    28    29   ar
    22    29    30   ar
    23    30    31   ar
    24    31    32   ar
    25    32    33   ar
    26    33    34   ar
    27     5     6    1
    28     6     7    1
    29     7     8    1
    30     7     9    1
    31    20    21   ar
    32    21    22   ar
    33    22    17   ar
    34     8     1    1
    35     9     3    1
    36    34    26   ar
    37    34    29   ar
    38    12    13    1
@<TRIPOS>MOLECULE
*****
 34 38 0 0 0
SMALL
GASTEIGER

@<TRIPOS>ATOM
      1 N         141.1159  139.5179  160.9458 N.3     1  UNL1       -0.2673
      2 C         140.9123  138.3195  161.8247 C.3     1  UNL1        0.1035
      3 C         141.3687  138.3510  163.2532 C.3     1  UNL1        0.1470
      4 C         141.8251  138.3823  164.6818 C.3     1  UNL1        0.1037
      5 N         142.4849  139.6121  165.2315 N.3     1  UNL1       -0.2646
      6 C         142.6884  140.8106  164.3526 C.3     1  UNL1        0.1037
      7 C         142.2321  140.7791  162.9240 C.3     1  UNL1        0.1470
      8 C         141.7757  140.7477  161.4955 C.3     1  UNL1        0.1035
      9 O         142.0286  139.5808  163.8029 O.3     1  UNL1       -0.3530
     10 C         140.6595  139.4865  159.5172 C.3     1  UNL1        0.0913
     11 C         139.2906  138.9754  159.1782 C.3     1  UNL1        0.1087
     12 N         138.0862  139.8336  159.4291 N.3     1  UNL1       -0.1780
     13 H         137.9400  140.3894  158.5863 H       1  UNL1        0.1488
     14 S         138.0737  140.7890  160.5854 S.O2    1  UNL1        0.0603
     15 O         138.4481  141.9107  159.6626 O.2     1  UNL1       -0.1530
     16 O         137.6992  139.6673  161.5081 O.2     1  UNL1       -0.1530
     17 C         138.0360  143.6552  164.0543 C.ar    1  UNL1        0.0685
     18 C         137.6542  142.2198  164.2633 C.ar    1  UNL1        0.0116
     19 C         137.6667  141.2643  163.1069 C.ar    1  UNL1        0.0206
     20 C         138.0611  141.7444  161.7417 C.ar    1  UNL1        0.1220
     21 C         138.4430  143.1799  161.5327 C.ar    1  UNL1        0.0206
     22 C         138.4304  144.1352  162.6890 C.ar    1  UNL1        0.0116
     23 N         138.0110  145.5659  166.3670 N.1     1  UNL1       -0.1908
     24 C         138.0235  144.6105  165.2106 C.1     1  UNL1        0.1004
     25 C         142.9413  139.6436  166.6600 C.3     1  UNL1        0.1025
     26 C         142.5749  140.8025  167.5391 C.ar    1  UNL1        0.0344
     27 C         143.3524  142.0767  167.6876 C.ar    1  UNL1        0.1766
     28 O         142.6248  142.9524  168.6643 O.2     1  UNL1       -0.4507
     29 C         141.3977  142.2194  169.1193 C.ar    1  UNL1        0.1452
     30 C         140.3044  142.5901  170.0770 C.ar    1  UNL1        0.0375
     31 C         139.1803  141.6323  170.3392 C.ar    1  UNL1        0.0031
     32 C         139.1495  140.3035  169.6438 C.ar    1  UNL1        0.0002
     33 C         140.2428  139.9328  168.6861 C.ar    1  UNL1        0.0029
     34 C         141.3669  140.8907  168.4238 C.ar    1  UNL1        0.0349
@<TRIPOS>BOND
     1    23    24    3
     2    24    17    1
     3    17    18   ar
     4    18    19   ar
     5    19    20   ar
     6    20    14    1
     7    14    15    2
     8    14    16    2
     9    14    12    1
    10    12    11    1
    11    11    10    1
    12    10     1    1
    13     1     2    1
    14     2     3    1
    15     3     4    1
    16     4     5    1
    17     5    25    1
    18    25    26    1
    19    26    27   ar
    20    27    28   ar
    21    28    29   ar
    22    29    30   ar
    23    30    31   ar
    24    31    32   ar
    25    32    33   ar
    26    33    34   ar
    27     5     6    1
    28     6     7    1
    29     7     8    1
    30     7     9    1
    31    20    21   ar
    32    21    22   ar
    33    22    17   ar
    34     8     1    1
    35     9     3    1
    36    34    26   ar
    37    34    29   ar
    38    12    13    1
@<TRIPOS>MOLECULE
*****
 34 38 0 0 0
SMALL
GASTEIGER

@<TRIPOS>ATOM
      1 N         141.1457  140.1004  159.2110 N.3     1  UNL1       -0.2673
      2 C         141.1363  138.7559  159.8758 C.3     1  UNL1        0.1035
      3 C         141.9851  138.5128  161.0884 C.3     1  UNL1        0.1470
      4 C         142.8339  138.2696  162.3010 C.3     1  UNL1        0.1037
      5 N         143.6922  139.3711  162.8488 N.3     1  UNL1       -0.2646
      6 C         143.7016  140.7158  162.1840 C.3     1  UNL1        0.1037
      7 C         142.8528  140.9589  160.9714 C.3     1  UNL1        0.1470
      8 C         142.0040  141.2019  159.7588 C.3     1  UNL1        0.1035
      9 O         142.8434  139.6143  161.6362 O.3     1  UNL1       -0.3530
     10 C         140.2969  140.3436  157.9984 C.3     1  UNL1        0.0913
     11 C         138.8062  140.4412  158.1337 C.3     1  UNL1        0.1087
     12 N         138.2045  141.3569  159.1582 N.3     1  UNL1       -0.1780
     13 H         138.6935  142.2486  159.0796 H       1  UNL1        0.1488
     14 S         138.2270  140.9770  160.6091 S.O2    1  UNL1        0.0603
     15 O         138.7892  142.3244  160.9531 O.2     1  UNL1       -0.1530
     16 O         137.6649  139.6296  160.2650 O.2     1  UNL1       -0.1530
     17 C         138.2947  139.8374  164.9618 C.ar    1  UNL1        0.0685
     18 C         138.5856  138.8063  163.9120 C.ar    1  UNL1        0.0116
     19 C         138.5631  139.1862  162.4610 C.ar    1  UNL1        0.0206
     20 C         138.2496  140.5971  162.0600 C.ar    1  UNL1        0.1220
     21 C         137.9587  141.6283  163.1099 C.ar    1  UNL1        0.0206
     22 C         137.9813  141.2484  164.5608 C.ar    1  UNL1        0.0116
     23 N         138.3399  139.0776  167.8637 N.1     1  UNL1       -0.1908
     24 C         138.3173  139.4575  166.4127 C.1     1  UNL1        0.1004
     25 C         144.5410  139.1281  164.0614 C.3     1  UNL1        0.1025
     26 C         143.9136  139.1047  165.4237 C.ar    1  UNL1        0.0344
     27 C         144.1506  138.0724  166.4859 C.ar    1  UNL1        0.1766
     28 O         143.3225  138.4392  167.6817 O.2     1  UNL1       -0.4507
     29 C         142.5738  139.6982  167.3584 C.ar    1  UNL1        0.1452
     30 C         141.6065  140.5232  168.1545 C.ar    1  UNL1        0.0375
     31 C         141.0046  141.7594  167.5551 C.ar    1  UNL1        0.0031
     32 C         141.3699  142.1708  166.1596 C.ar    1  UNL1        0.0002
     33 C         142.3372  141.3457  165.3635 C.ar    1  UNL1        0.0029
     34 C         142.9391  140.1094  165.9629 C.ar    1  UNL1        0.0349
@<TRIPOS>BOND
     1    23    24    3
     2    24    17    1
     3    17    18   ar
     4    18    19   ar
     5    19    20   ar
     6    20    14    1
     7    14    15    2
     8    14    16    2
     9    14    12    1
    10    12    11    1
    11    11    10    1
    12    10     1    1
    13     1     2    1
    14     2     3    1
    15     3     4    1
    16     4     5    1
    17     5    25    1
    18    25    26    1
    19    26    27   ar
    20    27    28   ar
    21    28    29   ar
    22    29    30   ar
    23    30    31   ar
    24    31    32   ar
    25    32    33   ar
    26    33    34   ar
    27     5     6    1
    28     6     7    1
    29     7     8    1
    30     7     9    1
    31    20    21   ar
    32    21    22   ar
    33    22    17   ar
    34     8     1    1
    35     9     3    1
    36    34    26   ar
    37    34    29   ar
    38    12    13    1
@<TRIPOS>MOLECULE
*****
 34 38 0 0 0
SMALL
GASTEIGER

@<TRIPOS>ATOM
      1 N         143.3725  140.2067  160.8952 N.3     1  UNL1       -0.2673
      2 C         144.4964  140.6420  161.7881 C.3     1  UNL1        0.1035
      3 C         144.5491  140.1711  163.2112 C.3     1  UNL1        0.1470
      4 C         144.6019  139.7001  164.6344 C.3     1  UNL1        0.1037
      5 N         143.5307  138.7938  165.1647 N.3     1  UNL1       -0.2646
      6 C         142.4067  138.3585  164.2717 C.3     1  UNL1        0.1037
      7 C         142.3540  138.8294  162.8486 C.3     1  UNL1        0.1470
      8 C         142.3013  139.3004  161.4255 C.3     1  UNL1        0.1035
      9 O         143.4779  139.2648  163.7415 O.3     1  UNL1       -0.3530
     10 C         143.3197  140.6777  159.4720 C.3     1  UNL1        0.0913
     11 C         143.8932  142.0135  159.1023 C.3     1  UNL1        0.1087
     12 N         143.0084  143.2241  159.0608 N.3     1  UNL1       -0.1780
     13 H         143.6111  144.0226  158.8621 H       1  UNL1        0.1488
     14 S         142.1834  143.5916  160.2584 S.O2    1  UNL1        0.0603
     15 O         140.9313  143.3053  159.4838 O.2     1  UNL1       -0.1530
     16 O         143.4356  143.8778  161.0330 O.2     1  UNL1       -0.1530
     17 C         139.7086  144.6941  163.8514 C.ar    1  UNL1        0.0685
     18 C         141.1772  144.9985  163.8302 C.ar    1  UNL1        0.0116
     19 C         142.0022  144.6310  162.6326 C.ar    1  UNL1        0.0206
     20 C         141.3585  143.9591  161.4560 C.ar    1  UNL1        0.1220
     21 C         139.8898  143.6546  161.4772 C.ar    1  UNL1        0.0206
     22 C         139.0649  144.0221  162.6748 C.ar    1  UNL1        0.0116
     23 N         138.0587  145.4290  166.2467 N.1     1  UNL1       -0.1908
     24 C         138.8836  145.0615  165.0490 C.1     1  UNL1        0.1004
     25 C         143.5834  138.3228  166.5878 C.3     1  UNL1        0.1025
     26 C         142.8640  139.0886  167.6584 C.ar    1  UNL1        0.0344
     27 C         142.7900  138.7169  169.1098 C.ar    1  UNL1        0.1766
     28 O         141.9726  139.7590  169.8140 O.2     1  UNL1       -0.4507
     29 C         141.5414  140.7747  168.7978 C.ar    1  UNL1        0.1452
     30 C         140.7183  142.0233  168.9135 C.ar    1  UNL1        0.0375
     31 C         140.4461  142.8575  167.6970 C.ar    1  UNL1        0.0031
     32 C         140.9970  142.4432  166.3647 C.ar    1  UNL1        0.0002
     33 C         141.8201  141.1945  166.2491 C.ar    1  UNL1        0.0029
     34 C         142.0923  140.3603  167.4656 C.ar    1  UNL1        0.0349
@<TRIPOS>BOND
     1    23    24    3
     2    24    17    1
     3    17    18   ar
     4    18    19   ar
     5    19    20   ar
     6    20    14    1
     7    14    15    2
     8    14    16    2
     9    14    12    1
    10    12    11    1
    11    11    10    1
    12    10     1    1
    13     1     2    1
    14     2     3    1
    15     3     4    1
    16     4     5    1
    17     5    25    1
    18    25    26    1
    19    26    27   ar
    20    27    28   ar
    21    28    29   ar
    22    29    30   ar
    23    30    31   ar
    24    31    32   ar
    25    32    33   ar
    26    33    34   ar
    27     5     6    1
    28     6     7    1
    29     7     8    1
    30     7     9    1
    31    20    21   ar
    32    21    22   ar
    33    22    17   ar
    34     8     1    1
    35     9     3    1
    36    34    26   ar
    37    34    29   ar
    38    12    13    1
