@<TRIPOS>MOLECULE
*****
 36 40 0 0 0
SMALL
GASTEIGER

@<TRIPOS>ATOM
      1 N         140.0353  139.3854  163.8709 N.am    1  UNL1       -0.2681
      2 C         141.2979  138.6947  163.4478 C.2     1  UNL1        0.3078
      3 O         142.2388  138.1523  164.4823 O.2     1  UNL1       -0.2522
      4 N         141.6195  138.5466  161.9902 N.am    1  UNL1       -0.2605
      5 C         142.8822  137.8560  161.5671 C.3     1  UNL1        0.1164
      6 C         143.2038  137.7079  160.1096 C.3     1  UNL1        0.1138
      7 N         142.2628  138.2504  159.0750 N.pl3   1  UNL1       -0.2884
      8 C         141.0002  138.9410  159.4980 C.3     1  UNL1        0.1138
      9 C         140.6786  139.0891  160.9556 C.3     1  UNL1        0.1164
     10 H         139.4177  139.7414  163.1918 H       1  UNL1        0.1564
     11 C         142.5844  138.1022  157.6174 C.ar    1  UNL1        0.1544
     12 N         142.5772  139.3054  156.7217 N.ar    1  UNL1       -0.1974
     13 C         142.8989  139.1573  155.2642 C.ar    1  UNL1        0.2154
     14 N         142.8917  140.3606  154.3684 N.pl3   1  UNL1       -0.3274
     15 N         143.2278  137.8060  154.7022 N.ar    1  UNL1       -0.2057
     16 C         143.2350  136.6028  155.5979 C.ar    1  UNL1        0.1353
     17 S         143.5189  135.1543  155.3307 S.2     1  UNL1       -0.0472
     18 C         143.3728  134.4073  156.6232 C.ar    1  UNL1        0.1137
     19 N         142.9985  135.3940  157.6891 N.ar    1  UNL1       -0.2339
     20 C         142.9133  136.7509  157.0555 C.ar    1  UNL1        0.1372
     21 H         142.6758  141.2475  154.7372 H       1  UNL1        0.1452
     22 H         143.1028  140.2634  153.4118 H       1  UNL1        0.1452
     23 C         143.5668  132.9324  156.8159 C.ar    1  UNL1        0.0430
     24 C         144.7278  132.4275  157.6203 C.ar    1  UNL1        0.0052
     25 C         144.9218  130.9526  157.8130 C.ar    1  UNL1        0.0207
     26 C         143.9548  129.9827  157.2013 C.ar    1  UNL1        0.0989
     27 N         142.7938  130.4876  156.3968 N.ar    1  UNL1       -0.2423
     28 C         142.5999  131.9625  156.2042 C.ar    1  UNL1        0.1009
     29 C         139.0704  139.8297  168.2436 C.ar    1  UNL1        0.1388
     30 C         140.2917  140.4887  167.6743 C.ar    1  UNL1        0.0382
     31 C         140.6134  140.3406  166.2168 C.ar    1  UNL1        0.0178
     32 C         139.7137  139.5335  165.3284 C.ar    1  UNL1        0.0518
     33 C         138.4923  138.8744  165.8977 C.ar    1  UNL1        0.0178
     34 C         138.1707  139.0226  167.3553 C.ar    1  UNL1        0.0382
     35 C         139.8544  140.1584  170.6987 C.3     1  UNL1        0.2525
     36 O         138.7488  139.9779  169.7012 O.3     1  UNL1       -0.4714
@<TRIPOS>BOND
     1    35    36    1
     2    36    29    1
     3    29    30   ar
     4    30    31   ar
     5    31    32   ar
     6    32     1    1
     7     1     2   am
     8     2     3    2
     9     2     4   am
    10     4     5    1
    11     5     6    1
    12     6     7    1
    13     7    11    1
    14    11    12   ar
    15    12    13   ar
    16    13    14    1
    17    13    15   ar
    18    15    16   ar
    19    16    17   ar
    20    17    18   ar
    21    18    23    1
    22    23    24   ar
    23    24    25   ar
    24    25    26   ar
    25    26    27   ar
    26    27    28   ar
    27    18    19   ar
    28    19    20   ar
    29     7     8    1
    30     8     9    1
    31    32    33   ar
    32    33    34   ar
    33    34    29   ar
    34     9     4    1
    35    20    11   ar
    36    20    16   ar
    37    28    23   ar
    38     1    10    1
    39    14    21    1
    40    14    22    1
@<TRIPOS>MOLECULE
*****
 36 40 0 0 0
SMALL
GASTEIGER

@<TRIPOS>ATOM
      1 N         138.7527  140.5928  163.6020 N.am    1  UNL1       -0.2681
      2 C         139.3820  139.6790  162.5925 C.2     1  UNL1        0.3078
      3 O         140.2384  138.5347  163.0477 O.2     1  UNL1       -0.2522
      4 N         139.1548  139.9094  161.1279 N.am    1  UNL1       -0.2605
      5 C         139.7841  138.9956  160.1183 C.3     1  UNL1        0.1164
      6 C         139.5569  139.2261  158.6538 C.3     1  UNL1        0.1138
      7 N         138.7004  140.3704  158.1985 N.pl3   1  UNL1       -0.2884
      8 C         138.0712  141.2841  159.2079 C.3     1  UNL1        0.1138
      9 C         138.2984  141.0536  160.6726 C.3     1  UNL1        0.1164
     10 H         138.1906  141.3438  163.3033 H       1  UNL1        0.1564
     11 C         138.4733  140.6008  156.7338 C.ar    1  UNL1        0.1544
     12 N         139.6385  140.8624  155.8262 N.ar    1  UNL1       -0.1974
     13 C         139.4114  141.0928  154.3616 C.ar    1  UNL1        0.2154
     14 N         140.5767  141.3545  153.4539 N.pl3   1  UNL1       -0.3274
     15 N         138.0190  141.0617  153.8044 N.ar    1  UNL1       -0.2057
     16 C         136.8537  140.8000  154.7121 C.ar    1  UNL1        0.1353
     17 S         135.3792  140.7105  154.4519 S.2     1  UNL1       -0.0472
     18 C         134.6950  140.4247  155.7558 C.ar    1  UNL1        0.1137
     19 N         135.7467  140.3376  156.8218 N.ar    1  UNL1       -0.2339
     20 C         137.0809  140.5696  156.1768 C.ar    1  UNL1        0.1372
     21 H         141.4905  141.3749  153.8195 H       1  UNL1        0.1452
     22 H         140.4276  141.5057  152.4926 H       1  UNL1        0.1452
     23 C         133.2184  140.2557  155.9582 C.ar    1  UNL1        0.0430
     24 C         132.6863  139.0024  156.5876 C.ar    1  UNL1        0.0052
     25 C         131.2096  138.8334  156.7900 C.ar    1  UNL1        0.0207
     26 C         130.2651  139.9176  156.3630 C.ar    1  UNL1        0.0989
     27 N         130.7972  141.1709  155.7337 N.ar    1  UNL1       -0.2423
     28 C         132.2739  141.3399  155.5313 C.ar    1  UNL1        0.1009
     29 C         139.4342  139.9014  167.9960 C.ar    1  UNL1        0.1388
     30 C         140.2542  140.9198  167.2610 C.ar    1  UNL1        0.0382
     31 C         140.0271  141.1503  165.7963 C.ar    1  UNL1        0.0178
     32 C         138.9798  140.3623  165.0666 C.ar    1  UNL1        0.0518
     33 C         138.1598  139.3438  165.8017 C.ar    1  UNL1        0.0178
     34 C         138.3870  139.1133  167.2664 C.ar    1  UNL1        0.0382
     35 C         141.0171  139.9106  170.0562 C.3     1  UNL1        0.2525
     36 O         139.6614  139.6709  169.4607 O.3     1  UNL1       -0.4714
@<TRIPOS>BOND
     1    35    36    1
     2    36    29    1
     3    29    30   ar
     4    30    31   ar
     5    31    32   ar
     6    32     1    1
     7     1     2   am
     8     2     3    2
     9     2     4   am
    10     4     5    1
    11     5     6    1
    12     6     7    1
    13     7    11    1
    14    11    12   ar
    15    12    13   ar
    16    13    14    1
    17    13    15   ar
    18    15    16   ar
    19    16    17   ar
    20    17    18   ar
    21    18    23    1
    22    23    24   ar
    23    24    25   ar
    24    25    26   ar
    25    26    27   ar
    26    27    28   ar
    27    18    19   ar
    28    19    20   ar
    29     7     8    1
    30     8     9    1
    31    32    33   ar
    32    33    34   ar
    33    34    29   ar
    34     9     4    1
    35    20    11   ar
    36    20    16   ar
    37    28    23   ar
    38     1    10    1
    39    14    21    1
    40    14    22    1
@<TRIPOS>MOLECULE
*****
 36 40 0 0 0
SMALL
GASTEIGER

@<TRIPOS>ATOM
      1 N         143.1744  140.1325  164.1824 N.am    1  UNL1       -0.2681
      2 C         142.0366  139.5866  163.3715 C.2     1  UNL1        0.3078
      3 O         140.7245  139.2809  164.0310 O.2     1  UNL1       -0.2522
      4 N         142.2110  139.3465  161.9012 N.am    1  UNL1       -0.2605
      5 C         141.0732  138.8006  161.0903 C.3     1  UNL1        0.1164
      6 C         141.2476  138.5604  159.6200 C.3     1  UNL1        0.1138
      7 N         142.5597  138.8661  158.9605 N.pl3   1  UNL1       -0.2884
      8 C         143.6975  139.4120  159.7714 C.3     1  UNL1        0.1138
      9 C         143.5231  139.6521  161.2417 C.3     1  UNL1        0.1164
     10 H         144.0356  140.3331  163.7496 H       1  UNL1        0.1564
     11 C         142.7341  138.6259  157.4901 C.ar    1  UNL1        0.1544
     12 N         142.6576  139.7744  156.5283 N.ar    1  UNL1       -0.1974
     13 C         142.8320  139.5343  155.0581 C.ar    1  UNL1        0.2154
     14 N         142.7555  140.6829  154.0962 N.pl3   1  UNL1       -0.3274
     15 N         143.0828  138.1455  154.5494 N.ar    1  UNL1       -0.2057
     16 C         143.1592  136.9970  155.5112 C.ar    1  UNL1        0.1353
     17 S         143.3927  135.5297  155.3057 S.2     1  UNL1       -0.0472
     18 C         143.3627  134.8629  156.6490 C.ar    1  UNL1        0.1137
     19 N         143.1106  135.9183  157.6848 N.ar    1  UNL1       -0.2339
     20 C         142.9848  137.2372  156.9816 C.ar    1  UNL1        0.1372
     21 H         142.5909  141.5943  154.4300 H       1  UNL1        0.1452
     22 H         142.8700  140.5252  153.1312 H       1  UNL1        0.1452
     23 C         143.5516  133.3981  156.9107 C.ar    1  UNL1        0.0430
     24 C         144.7186  132.9263  157.7265 C.ar    1  UNL1        0.0052
     25 C         144.9075  131.4614  157.9882 C.ar    1  UNL1        0.0207
     26 C         143.9294  130.4683  157.4341 C.ar    1  UNL1        0.0989
     27 N         142.7624  130.9400  156.6183 N.ar    1  UNL1       -0.2423
     28 C         142.5735  132.4050  156.3567 C.ar    1  UNL1        0.1009
     29 C         142.6513  140.8531  168.5934 C.ar    1  UNL1        0.1388
     30 C         142.7198  139.4507  168.0654 C.ar    1  UNL1        0.0382
     31 C         142.8941  139.2105  166.5952 C.ar    1  UNL1        0.0178
     32 C         143.0001  140.3727  165.6527 C.ar    1  UNL1        0.0518
     33 C         142.9316  141.7751  166.1807 C.ar    1  UNL1        0.0178
     34 C         142.7572  142.0153  167.6510 C.ar    1  UNL1        0.0382
     35 C         142.3742  142.4949  170.5878 C.3     1  UNL1        0.2525
     36 O         142.4770  141.0932  170.0638 O.3     1  UNL1       -0.4714
@<TRIPOS>BOND
     1    35    36    1
     2    36    29    1
     3    29    30   ar
     4    30    31   ar
     5    31    32   ar
     6    32     1    1
     7     1     2   am
     8     2     3    2
     9     2     4   am
    10     4     5    1
    11     5     6    1
    12     6     7    1
    13     7    11    1
    14    11    12   ar
    15    12    13   ar
    16    13    14    1
    17    13    15   ar
    18    15    16   ar
    19    16    17   ar
    20    17    18   ar
    21    18    23    1
    22    23    24   ar
    23    24    25   ar
    24    25    26   ar
    25    26    27   ar
    26    27    28   ar
    27    18    19   ar
    28    19    20   ar
    29     7     8    1
    30     8     9    1
    31    32    33   ar
    32    33    34   ar
    33    34    29   ar
    34     9     4    1
    35    20    11   ar
    36    20    16   ar
    37    28    23   ar
    38     1    10    1
    39    14    21    1
    40    14    22    1
@<TRIPOS>MOLECULE
*****
 36 40 0 0 0
SMALL
GASTEIGER

@<TRIPOS>ATOM
      1 N         141.0954  140.9191  164.6146 N.am    1  UNL1       -0.2681
      2 C         142.2557  140.1371  164.0738 C.2     1  UNL1        0.3078
      3 O         143.0929  139.3023  164.9970 O.2     1  UNL1       -0.2522
      4 N         142.5788  140.1900  162.6101 N.am    1  UNL1       -0.2605
      5 C         143.7390  139.4080  162.0693 C.3     1  UNL1        0.1164
      6 C         144.0621  139.4609  160.6055 C.3     1  UNL1        0.1138
      7 N         143.2248  140.2958  159.6823 N.pl3   1  UNL1       -0.2884
      8 C         142.0646  141.0778  160.2230 C.3     1  UNL1        0.1138
      9 C         141.7416  141.0248  161.6869 C.3     1  UNL1        0.1164
     10 H         140.5459  141.4670  164.0088 H       1  UNL1        0.1564
     11 C         143.5479  140.3487  158.2185 C.ar    1  UNL1        0.1544
     12 N         143.9933  141.6381  157.5948 N.ar    1  UNL1       -0.1974
     13 C         144.3163  141.6910  156.1311 C.ar    1  UNL1        0.2154
     14 N         144.7617  142.9806  155.5074 N.pl3   1  UNL1       -0.3274
     15 N         144.1941  140.4544  155.2908 N.ar    1  UNL1       -0.2057
     16 C         143.7487  139.1650  155.9144 C.ar    1  UNL1        0.1353
     17 S         143.5369  137.7943  155.3432 S.2     1  UNL1       -0.0472
     18 C         143.0829  136.8943  156.4539 C.ar    1  UNL1        0.1137
     19 N         143.0141  137.7087  157.7117 N.ar    1  UNL1       -0.2339
     20 C         143.4257  139.1121  157.3783 C.ar    1  UNL1        0.1372
     21 H         144.8420  143.7922  156.0588 H       1  UNL1        0.1452
     22 H         144.9738  143.0153  154.5466 H       1  UNL1        0.1452
     23 C         142.7552  135.4359  156.3289 C.ar    1  UNL1        0.0430
     24 C         141.8848  134.9564  155.2054 C.ar    1  UNL1        0.0052
     25 C         141.5571  133.4979  155.0804 C.ar    1  UNL1        0.0207
     26 C         142.0998  132.5190  156.0790 C.ar    1  UNL1        0.0989
     27 N         142.9702  132.9985  157.2026 N.ar    1  UNL1       -0.2423
     28 C         143.2979  134.4570  157.3275 C.ar    1  UNL1        0.1009
     29 C         140.1263  140.7604  169.0061 C.ar    1  UNL1        0.1388
     30 C         139.3896  139.8774  168.0431 C.ar    1  UNL1        0.0382
     31 C         139.7125  139.9302  166.5793 C.ar    1  UNL1        0.0178
     32 C         140.7724  140.8662  166.0784 C.ar    1  UNL1        0.0518
     33 C         141.5092  141.7493  167.0415 C.ar    1  UNL1        0.0178
     34 C         141.1861  141.6963  168.5053 C.ar    1  UNL1        0.0382
     35 C         140.7758  141.2537  171.4729 C.3     1  UNL1        0.2525
     36 O         139.8032  140.7075  170.4700 O.3     1  UNL1       -0.4714
@<TRIPOS>BOND
     1    35    36    1
     2    36    29    1
     3    29    30   ar
     4    30    31   ar
     5    31    32   ar
     6    32     1    1
     7     1     2   am
     8     2     3    2
     9     2     4   am
    10     4     5    1
    11     5     6    1
    12     6     7    1
    13     7    11    1
    14    11    12   ar
    15    12    13   ar
    16    13    14    1
    17    13    15   ar
    18    15    16   ar
    19    16    17   ar
    20    17    18   ar
    21    18    23    1
    22    23    24   ar
    23    24    25   ar
    24    25    26   ar
    25    26    27   ar
    26    27    28   ar
    27    18    19   ar
    28    19    20   ar
    29     7     8    1
    30     8     9    1
    31    32    33   ar
    32    33    34   ar
    33    34    29   ar
    34     9     4    1
    35    20    11   ar
    36    20    16   ar
    37    28    23   ar
    38     1    10    1
    39    14    21    1
    40    14    22    1
@<TRIPOS>MOLECULE
*****
 36 40 0 0 0
SMALL
GASTEIGER

@<TRIPOS>ATOM
      1 N         141.9574  139.8775  164.1701 N.am    1  UNL1       -0.2681
      2 C         141.8075  141.0544  163.2521 C.2     1  UNL1        0.3078
      3 O         140.9821  142.2338  163.6736 O.2     1  UNL1       -0.2522
      4 N         142.4830  141.0519  161.9130 N.am    1  UNL1       -0.2605
      5 C         142.3332  142.2288  160.9950 C.3     1  UNL1        0.1164
      6 C         143.0087  142.2263  159.6558 C.3     1  UNL1        0.1138
      7 N         143.8342  141.0468  159.2344 N.pl3   1  UNL1       -0.2884
      8 C         143.9841  139.8699  160.1522 C.3     1  UNL1        0.1138
      9 C         143.3085  139.8725  161.4915 C.3     1  UNL1        0.1164
     10 H         142.4992  139.1034  163.8935 H       1  UNL1        0.1564
     11 C         144.5097  141.0443  157.8951 C.ar    1  UNL1        0.1544
     12 N         145.3971  142.1874  157.5006 N.ar    1  UNL1       -0.1974
     13 C         146.0726  142.1850  156.1614 C.ar    1  UNL1        0.2154
     14 N         146.9601  143.3282  155.7669 N.pl3   1  UNL1       -0.3274
     15 N         145.8608  141.0393  155.2166 N.ar    1  UNL1       -0.2057
     16 C         144.9734  139.8961  155.6111 C.ar    1  UNL1        0.1353
     17 S         144.5786  138.6386  154.8951 S.2     1  UNL1       -0.0472
     18 C         143.6590  137.8639  155.7919 C.ar    1  UNL1        0.1137
     19 N         143.4855  138.6426  157.0621 N.ar    1  UNL1       -0.2339
     20 C         144.2979  139.8986  156.9504 C.ar    1  UNL1        0.1372
     21 H         147.0992  144.0802  156.3869 H       1  UNL1        0.1452
     22 H         147.4035  143.3266  154.8879 H       1  UNL1        0.1452
     23 C         143.0244  136.5424  155.4742 C.ar    1  UNL1        0.0430
     24 C         142.4729  136.2855  154.1031 C.ar    1  UNL1        0.0052
     25 C         141.8382  134.9640  153.7856 C.ar    1  UNL1        0.0207
     26 C         141.7550  133.8994  154.8390 C.ar    1  UNL1        0.0989
     27 N         142.3065  134.1562  156.2100 N.ar    1  UNL1       -0.2423
     28 C         142.9412  135.4778  156.5276 C.ar    1  UNL1        0.1009
     29 C         139.9307  139.8851  168.1878 C.ar    1  UNL1        0.1388
     30 C         141.4062  140.1376  168.0915 C.ar    1  UNL1        0.0382
     31 C         142.0818  140.1351  166.7524 C.ar    1  UNL1        0.0178
     32 C         141.2819  139.8800  165.5092 C.ar    1  UNL1        0.0518
     33 C         139.8063  139.6275  165.6055 C.ar    1  UNL1        0.0178
     34 C         139.1308  139.6301  166.9448 C.ar    1  UNL1        0.0382
     35 C         140.0613  140.1050  170.7733 C.3     1  UNL1        0.2525
     36 O         139.2552  139.8876  169.5271 O.3     1  UNL1       -0.4714
@<TRIPOS>BOND
     1    35    36    1
     2    36    29    1
     3    29    30   ar
     4    30    31   ar
     5    31    32   ar
     6    32     1    1
     7     1     2   am
     8     2     3    2
     9     2     4   am
    10     4     5    1
    11     5     6    1
    12     6     7    1
    13     7    11    1
    14    11    12   ar
    15    12    13   ar
    16    13    14    1
    17    13    15   ar
    18    15    16   ar
    19    16    17   ar
    20    17    18   ar
    21    18    23    1
    22    23    24   ar
    23    24    25   ar
    24    25    26   ar
    25    26    27   ar
    26    27    28   ar
    27    18    19   ar
    28    19    20   ar
    29     7     8    1
    30     8     9    1
    31    32    33   ar
    32    33    34   ar
    33    34    29   ar
    34     9     4    1
    35    20    11   ar
    36    20    16   ar
    37    28    23   ar
    38     1    10    1
    39    14    21    1
    40    14    22    1
@<TRIPOS>MOLECULE
*****
 36 40 0 0 0
SMALL
GASTEIGER

@<TRIPOS>ATOM
      1 N         142.0377  136.4897  156.8199 N.am    1  UNL1       -0.2681
      2 C         142.9127  137.7027  156.7050 C.2     1  UNL1        0.3078
      3 O         144.2767  137.5881  156.0916 O.2     1  UNL1       -0.2522
      4 N         142.4236  139.0302  157.2034 N.am    1  UNL1       -0.2605
      5 C         143.2986  140.2432  157.0886 C.3     1  UNL1        0.1164
      6 C         142.8095  141.5706  157.5870 C.3     1  UNL1        0.1138
      7 N         141.4454  141.6852  158.2004 N.pl3   1  UNL1       -0.2884
      8 C         140.5704  140.4723  158.3153 C.3     1  UNL1        0.1138
      9 C         141.0596  139.1448  157.8168 C.3     1  UNL1        0.1164
     10 H         141.1425  136.5649  157.2224 H       1  UNL1        0.1564
     11 C         140.9563  143.0127  158.6989 C.ar    1  UNL1        0.1544
     12 N         140.7731  144.1524  157.7410 N.ar    1  UNL1       -0.1974
     13 C         140.2840  145.4798  158.2394 C.ar    1  UNL1        0.2154
     14 N         140.1007  146.6195  157.2814 N.pl3   1  UNL1       -0.3274
     15 N         139.9782  145.6678  159.6959 N.ar    1  UNL1       -0.2057
     16 C         140.1615  144.5282  160.6538 C.ar    1  UNL1        0.1353
     17 S         139.9431  144.4159  162.1336 S.2     1  UNL1       -0.0472
     18 C         140.2971  143.0189  162.5496 C.ar    1  UNL1        0.1137
     19 N         140.7344  142.2679  161.3270 N.ar    1  UNL1       -0.2339
     20 C         140.6505  143.2007  160.1553 C.ar    1  UNL1        0.1372
     21 H         140.3014  146.4962  156.3255 H       1  UNL1        0.1452
     22 H         139.7797  147.4908  157.6085 H       1  UNL1        0.1452
     23 C         140.2264  142.4695  163.9436 C.ar    1  UNL1        0.0430
     24 C         140.3868  143.3860  165.1201 C.ar    1  UNL1        0.0052
     25 C         140.3161  142.8365  166.5140 C.ar    1  UNL1        0.0207
     26 C         140.0849  141.3704  166.7315 C.ar    1  UNL1        0.0989
     27 N         139.9245  140.4539  165.5550 N.ar    1  UNL1       -0.2423
     28 C         139.9953  141.0034  164.1610 C.ar    1  UNL1        0.1009
     29 C         143.5050  132.5072  155.3244 C.ar    1  UNL1        0.1388
     30 C         142.6403  133.3648  154.4489 C.ar    1  UNL1        0.0382
     31 C         142.1512  134.6923  154.9473 C.ar    1  UNL1        0.0178
     32 C         142.5268  135.1623  156.3214 C.ar    1  UNL1        0.0518
     33 C         143.3916  134.3045  157.1970 C.ar    1  UNL1        0.0178
     34 C         143.8807  132.9770  156.6985 C.ar    1  UNL1        0.0382
     35 C         144.8881  130.3380  155.6875 C.3     1  UNL1        0.2525
     36 O         143.9941  131.1797  154.8259 O.3     1  UNL1       -0.4714
@<TRIPOS>BOND
     1    35    36    1
     2    36    29    1
     3    29    30   ar
     4    30    31   ar
     5    31    32   ar
     6    32     1    1
     7     1     2   am
     8     2     3    2
     9     2     4   am
    10     4     5    1
    11     5     6    1
    12     6     7    1
    13     7    11    1
    14    11    12   ar
    15    12    13   ar
    16    13    14    1
    17    13    15   ar
    18    15    16   ar
    19    16    17   ar
    20    17    18   ar
    21    18    23    1
    22    23    24   ar
    23    24    25   ar
    24    25    26   ar
    25    26    27   ar
    26    27    28   ar
    27    18    19   ar
    28    19    20   ar
    29     7     8    1
    30     8     9    1
    31    32    33   ar
    32    33    34   ar
    33    34    29   ar
    34     9     4    1
    35    20    11   ar
    36    20    16   ar
    37    28    23   ar
    38     1    10    1
    39    14    21    1
    40    14    22    1
@<TRIPOS>MOLECULE
*****
 36 40 0 0 0
SMALL
GASTEIGER

@<TRIPOS>ATOM
      1 N         141.4694  141.6653  164.7022 N.am    1  UNL1       -0.2681
      2 C         141.6324  140.2426  164.2555 C.2     1  UNL1        0.3078
      3 O         141.9017  139.1660  165.2646 O.2     1  UNL1       -0.2522
      4 N         141.5261  139.8966  162.7999 N.am    1  UNL1       -0.2605
      5 C         141.6892  138.4739  162.3533 C.3     1  UNL1        0.1164
      6 C         141.5829  138.1280  160.8977 C.3     1  UNL1        0.1138
      7 N         141.3136  139.2047  159.8885 N.pl3   1  UNL1       -0.2884
      8 C         141.1506  140.6273  160.3351 C.3     1  UNL1        0.1138
      9 C         141.2569  140.9733  161.7908 C.3     1  UNL1        0.1164
     10 H         141.2926  142.3720  164.0399 H       1  UNL1        0.1564
     11 C         141.2073  138.8587  158.4329 C.ar    1  UNL1        0.1544
     12 N         140.0557  138.0334  157.9403 N.ar    1  UNL1       -0.1974
     13 C         139.9494  137.6873  156.4847 C.ar    1  UNL1        0.2154
     14 N         138.7977  136.8620  155.9921 N.pl3   1  UNL1       -0.3274
     15 N         140.9948  138.1666  155.5215 N.ar    1  UNL1       -0.2057
     16 C         142.1464  138.9919  156.0141 C.ar    1  UNL1        0.1353
     17 S         143.3199  139.6013  155.3059 S.2     1  UNL1       -0.0472
     18 C         144.1514  140.3239  156.3239 C.ar    1  UNL1        0.1137
     19 N         143.4918  140.1612  157.6612 N.ar    1  UNL1       -0.2339
     20 C         142.2527  139.3379  157.4698 C.ar    1  UNL1        0.1372
     21 H         138.1116  136.5474  156.6242 H       1  UNL1        0.1452
     22 H         138.7280  136.6349  155.0367 H       1  UNL1        0.1452
     23 C         145.4198  141.0771  156.0522 C.ar    1  UNL1        0.0430
     24 C         146.1269  140.9069  154.7404 C.ar    1  UNL1        0.0052
     25 C         147.3954  141.6601  154.4688 C.ar    1  UNL1        0.0207
     26 C         147.9567  142.5836  155.5090 C.ar    1  UNL1        0.0989
     27 N         147.2496  142.7538  156.8209 N.ar    1  UNL1       -0.2423
     28 C         145.9812  142.0006  157.0925 C.ar    1  UNL1        0.1009
     29 C         141.7882  142.7033  169.0692 C.ar    1  UNL1        0.1388
     30 C         140.4515  142.7237  168.3891 C.ar    1  UNL1        0.0382
     31 C         140.3451  142.3777  166.9334 C.ar    1  UNL1        0.0178
     32 C         141.5757  142.0113  166.1578 C.ar    1  UNL1        0.0518
     33 C         142.9125  141.9910  166.8379 C.ar    1  UNL1        0.0178
     34 C         143.0188  142.3370  168.2936 C.ar    1  UNL1        0.0382
     35 C         141.7228  141.9814  171.5641 C.3     1  UNL1        0.2525
     36 O         141.8945  143.0493  170.5248 O.3     1  UNL1       -0.4714
@<TRIPOS>BOND
     1    35    36    1
     2    36    29    1
     3    29    30   ar
     4    30    31   ar
     5    31    32   ar
     6    32     1    1
     7     1     2   am
     8     2     3    2
     9     2     4   am
    10     4     5    1
    11     5     6    1
    12     6     7    1
    13     7    11    1
    14    11    12   ar
    15    12    13   ar
    16    13    14    1
    17    13    15   ar
    18    15    16   ar
    19    16    17   ar
    20    17    18   ar
    21    18    23    1
    22    23    24   ar
    23    24    25   ar
    24    25    26   ar
    25    26    27   ar
    26    27    28   ar
    27    18    19   ar
    28    19    20   ar
    29     7     8    1
    30     8     9    1
    31    32    33   ar
    32    33    34   ar
    33    34    29   ar
    34     9     4    1
    35    20    11   ar
    36    20    16   ar
    37    28    23   ar
    38     1    10    1
    39    14    21    1
    40    14    22    1
@<TRIPOS>MOLECULE
*****
 36 40 0 0 0
SMALL
GASTEIGER

@<TRIPOS>ATOM
      1 N         141.2732  134.5222  155.4750 N.am    1  UNL1       -0.2681
      2 C         142.2161  135.4811  156.1396 C.2     1  UNL1        0.3078
      3 O         143.6753  135.1490  156.2411 O.2     1  UNL1       -0.2522
      4 N         141.6997  136.7719  156.7025 N.am    1  UNL1       -0.2605
      5 C         142.6426  137.7308  157.3671 C.3     1  UNL1        0.1164
      6 C         142.1263  139.0216  157.9300 C.3     1  UNL1        0.1138
      7 N         140.6669  139.3537  157.8285 N.pl3   1  UNL1       -0.2884
      8 C         139.7240  138.3949  157.1640 C.3     1  UNL1        0.1138
      9 C         140.2405  137.1040  156.6010 C.3     1  UNL1        0.1164
     10 H         140.3154  134.7401  155.4083 H       1  UNL1        0.1564
     11 C         140.1506  140.6446  158.3915 C.ar    1  UNL1        0.1544
     12 N         140.1104  141.8743  157.5334 N.ar    1  UNL1       -0.1974
     13 C         139.5941  143.1651  158.0963 C.ar    1  UNL1        0.2154
     14 N         139.5540  144.3949  157.2382 N.pl3   1  UNL1       -0.3274
     15 N         139.1179  143.2265  159.5174 N.ar    1  UNL1       -0.2057
     16 C         139.1580  141.9968  160.3755 C.ar    1  UNL1        0.1353
     17 S         138.7590  141.7542  161.8010 S.2     1  UNL1       -0.0472
     18 C         139.0288  140.3134  162.1190 C.ar    1  UNL1        0.1137
     19 N         139.5945  139.6654  160.8901 N.ar    1  UNL1       -0.2339
     20 C         139.6744  140.7059  159.8125 C.ar    1  UNL1        0.1372
     21 H         139.8665  144.3546  156.3055 H       1  UNL1        0.1452
     22 H         139.2151  145.2421  157.6077 H       1  UNL1        0.1452
     23 C         138.7770  139.6388  163.4349 C.ar    1  UNL1        0.0430
     24 C         138.3292  140.4453  164.6176 C.ar    1  UNL1        0.0052
     25 C         138.0775  139.7706  165.9335 C.ar    1  UNL1        0.0207
     26 C         138.2735  138.2895  166.0666 C.ar    1  UNL1        0.0989
     27 N         138.7213  137.4829  164.8839 N.ar    1  UNL1       -0.2423
     28 C         138.9730  138.1576  163.5680 C.ar    1  UNL1        0.1009
     29 C         142.8223  130.6495  153.7861 C.ar    1  UNL1        0.1388
     30 C         142.6970  131.8559  152.9035 C.ar    1  UNL1        0.0382
     31 C         142.1807  133.1467  153.4664 C.ar    1  UNL1        0.0178
     32 C         141.7895  133.2314  154.9121 C.ar    1  UNL1        0.0518
     33 C         141.9148  132.0250  155.7948 C.ar    1  UNL1        0.0178
     34 C         142.4312  130.7341  155.2317 C.ar    1  UNL1        0.0382
     35 C         144.7622  129.2580  152.7613 C.3     1  UNL1        0.2525
     36 O         143.3387  129.3586  153.2231 O.3     1  UNL1       -0.4714
@<TRIPOS>BOND
     1    35    36    1
     2    36    29    1
     3    29    30   ar
     4    30    31   ar
     5    31    32   ar
     6    32     1    1
     7     1     2   am
     8     2     3    2
     9     2     4   am
    10     4     5    1
    11     5     6    1
    12     6     7    1
    13     7    11    1
    14    11    12   ar
    15    12    13   ar
    16    13    14    1
    17    13    15   ar
    18    15    16   ar
    19    16    17   ar
    20    17    18   ar
    21    18    23    1
    22    23    24   ar
    23    24    25   ar
    24    25    26   ar
    25    26    27   ar
    26    27    28   ar
    27    18    19   ar
    28    19    20   ar
    29     7     8    1
    30     8     9    1
    31    32    33   ar
    32    33    34   ar
    33    34    29   ar
    34     9     4    1
    35    20    11   ar
    36    20    16   ar
    37    28    23   ar
    38     1    10    1
    39    14    21    1
    40    14    22    1
@<TRIPOS>MOLECULE
*****
 36 40 0 0 0
SMALL
GASTEIGER

@<TRIPOS>ATOM
      1 N         140.7396  142.0986  164.4811 N.am    1  UNL1       -0.2681
      2 C         140.1991  140.7934  163.9763 C.2     1  UNL1        0.3078
      3 O         140.0914  139.6181  164.9021 O.2     1  UNL1       -0.2522
      4 N         139.7664  140.6637  162.5461 N.am    1  UNL1       -0.2605
      5 C         139.2259  139.3586  162.0414 C.3     1  UNL1        0.1164
      6 C         138.7932  139.2289  160.6111 C.3     1  UNL1        0.1138
      7 N         138.9009  140.4044  159.6853 N.pl3   1  UNL1       -0.2884
      8 C         139.4413  141.7094  160.1900 C.3     1  UNL1        0.1138
      9 C         139.8741  141.8391  161.6204 C.3     1  UNL1        0.1164
     10 H         140.8103  142.8700  163.8735 H       1  UNL1        0.1564
     11 C         138.4681  140.2746  158.2550 C.ar    1  UNL1        0.1544
     12 N         137.3905  141.1666  157.7136 N.ar    1  UNL1       -0.1974
     13 C         136.9577  141.0369  156.2833 C.ar    1  UNL1        0.2154
     14 N         135.8801  141.9290  155.7419 N.pl3   1  UNL1       -0.3274
     15 N         137.6026  140.0152  155.3943 N.ar    1  UNL1       -0.2057
     16 C         138.6801  139.1232  155.9357 C.ar    1  UNL1        0.1353
     17 S         139.4921  138.0322  155.3028 S.2     1  UNL1       -0.0472
     18 C         140.4268  137.4878  156.3420 C.ar    1  UNL1        0.1137
     19 N         140.1924  138.2421  157.6172 N.ar    1  UNL1       -0.2339
     20 C         139.1129  139.2529  157.3660 C.ar    1  UNL1        0.1372
     21 H         135.4569  142.5996  156.3254 H       1  UNL1        0.1452
     22 H         135.5961  141.8438  154.8031 H       1  UNL1        0.1452
     23 C         141.4212  136.3828  156.1414 C.ar    1  UNL1        0.0430
     24 C         141.1043  135.2480  155.2130 C.ar    1  UNL1        0.0052
     25 C         142.0989  134.1432  155.0124 C.ar    1  UNL1        0.0207
     26 C         143.4102  134.1730  155.7401 C.ar    1  UNL1        0.0989
     27 N         143.7271  135.3078  156.6684 N.ar    1  UNL1       -0.2423
     28 C         142.7325  136.4127  156.8690 C.ar    1  UNL1        0.1009
     29 C         142.0379  142.4877  168.7721 C.ar    1  UNL1        0.1388
     30 C         140.6483  142.8844  168.3700 C.ar    1  UNL1        0.0382
     31 C         140.2155  142.7548  166.9397 C.ar    1  UNL1        0.0178
     32 C         141.1723  142.2282  165.9113 C.ar    1  UNL1        0.0518
     33 C         142.5620  141.8314  166.3135 C.ar    1  UNL1        0.0178
     34 C         142.9947  141.9612  167.7438 C.ar    1  UNL1        0.0382
     35 C         141.8390  141.7588  171.2579 C.3     1  UNL1        0.2525
     36 O         142.4706  142.6174  170.2024 O.3     1  UNL1       -0.4714
@<TRIPOS>BOND
     1    35    36    1
     2    36    29    1
     3    29    30   ar
     4    30    31   ar
     5    31    32   ar
     6    32     1    1
     7     1     2   am
     8     2     3    2
     9     2     4   am
    10     4     5    1
    11     5     6    1
    12     6     7    1
    13     7    11    1
    14    11    12   ar
    15    12    13   ar
    16    13    14    1
    17    13    15   ar
    18    15    16   ar
    19    16    17   ar
    20    17    18   ar
    21    18    23    1
    22    23    24   ar
    23    24    25   ar
    24    25    26   ar
    25    26    27   ar
    26    27    28   ar
    27    18    19   ar
    28    19    20   ar
    29     7     8    1
    30     8     9    1
    31    32    33   ar
    32    33    34   ar
    33    34    29   ar
    34     9     4    1
    35    20    11   ar
    36    20    16   ar
    37    28    23   ar
    38     1    10    1
    39    14    21    1
    40    14    22    1
