@<TRIPOS>MOLECULE
*****
 35 39 0 0 0
SMALL
GASTEIGER

@<TRIPOS>ATOM
      1 C         142.2798  139.1656  158.8825 C.2     1  UNL1        0.3045
      2 O         143.3845  140.1634  158.6975 O.2     1  UNL1       -0.2647
      3 N         141.2565  139.3708  159.9599 N.am    1  UNL1       -0.2720
      4 C         140.1519  138.3730  160.1449 C.3     1  UNL1        0.0976
      5 C         139.1286  138.5782  161.2222 C.3     1  UNL1        0.0651
      6 C         139.2098  139.7812  162.1145 C.3     1  UNL1        0.1693
      7 C         140.3145  140.7789  161.9295 C.3     1  UNL1        0.0651
      8 C         141.3378  140.5737  160.8522 C.3     1  UNL1        0.0976
      9 C         142.6422  135.7959  156.9906 C.ar    1  UNL1        0.2501
     10 N         141.5049  136.4270  156.2434 N.ar    1  UNL1       -0.1068
     11 N         141.2307  137.7661  156.8612 N.ar    1  UNL1       -0.1021
     12 C         142.1986  137.9627  157.9902 C.ar    1  UNL1        0.3042
     13 O         143.0709  136.7450  158.0701 O.2     1  UNL1       -0.4122
     14 C         144.4505  131.7635  156.1423 C.ar    1  UNL1        0.1387
     15 C         144.6644  132.4158  157.4760 C.ar    1  UNL1        0.0371
     16 C         144.0617  133.7600  157.7587 C.ar    1  UNL1        0.0078
     17 C         143.2450  134.4518  156.7078 C.ar    1  UNL1        0.0553
     18 C         143.0311  133.7994  155.3742 C.ar    1  UNL1        0.0078
     19 C         143.6339  132.4553  155.0914 C.ar    1  UNL1        0.0371
     20 C         144.6832  129.6797  154.6083 C.3     1  UNL1        0.2525
     21 O         145.0533  130.4194  155.8596 O.3     1  UNL1       -0.4714
     22 O         138.1865  139.9864  163.1919 O.3     1  UNL1       -0.4791
     23 C         138.6134  140.0575  164.6281 C.ar    1  UNL1        0.1384
     24 C         138.1834  138.9916  165.5920 C.ar    1  UNL1        0.0366
     25 C         138.6103  139.0628  167.0281 C.ar    1  UNL1        0.0002
     26 C         139.4672  140.1998  167.5004 C.ar    1  UNL1       -0.0059
     27 C         139.8972  141.2656  166.5366 C.ar    1  UNL1        0.0002
     28 C         139.4703  141.1945  165.1004 C.ar    1  UNL1        0.0366
     29 C         139.8941  140.2709  168.9367 C.3     1  UNL1        0.0993
     30 N         140.7524  141.4068  169.4087 N.3     1  UNL1       -0.2646
     31 C         142.2359  141.2238  169.5348 C.3     1  UNL1        0.1049
     32 C         143.0943  142.3597  170.0068 C.3     1  UNL1        0.1595
     33 O         142.4693  143.6786  170.3528 O.3     1  UNL1       -0.3508
     34 C         140.9858  143.8616  170.2267 C.3     1  UNL1        0.1595
     35 C         140.1274  142.7257  169.7547 C.3     1  UNL1        0.1049
@<TRIPOS>BOND
     1    20    21    1
     2    21    14    1
     3    14    15   ar
     4    15    16   ar
     5    16    17   ar
     6    17     9    1
     7     9    10   ar
     8    10    11   ar
     9    11    12   ar
    10    12     1    1
    11     1     2    2
    12     1     3   am
    13     3     4    1
    14     4     5    1
    15     5     6    1
    16     6    22    1
    17    22    23    1
    18    23    24   ar
    19    24    25   ar
    20    25    26   ar
    21    26    29    1
    22    29    30    1
    23    30    31    1
    24    31    32    1
    25    32    33    1
    26    33    34    1
    27    34    35    1
    28    26    27   ar
    29    27    28   ar
    30     6     7    1
    31     7     8    1
    32    12    13   ar
    33    17    18   ar
    34    18    19   ar
    35    19    14   ar
    36    13     9   ar
    37     8     3    1
    38    28    23   ar
    39    35    30    1
@<TRIPOS>MOLECULE
*****
 35 39 0 0 0
SMALL
GASTEIGER

@<TRIPOS>ATOM
      1 C         142.9337  139.0350  157.6795 C.2     1  UNL1        0.3045
      2 O         142.9804  140.2747  156.8364 O.2     1  UNL1       -0.2647
      3 N         143.3008  139.1017  159.1324 N.am    1  UNL1       -0.2720
      4 C         143.2540  137.8620  159.9755 C.3     1  UNL1        0.0976
      5 C         143.6211  137.9287  161.4283 C.3     1  UNL1        0.0651
      6 C         144.0349  139.2352  162.0380 C.3     1  UNL1        0.1693
      7 C         144.0816  140.4749  161.1949 C.3     1  UNL1        0.0651
      8 C         143.7145  140.4082  159.7421 C.3     1  UNL1        0.0976
      9 C         142.5775  135.4521  156.2299 C.ar    1  UNL1        0.2501
     10 N         141.1889  135.9839  156.0328 N.ar    1  UNL1       -0.1068
     11 N         141.1532  137.3908  156.5518 N.ar    1  UNL1       -0.1021
     12 C         142.5199  137.7285  157.0697 C.ar    1  UNL1        0.3042
     13 O         143.4001  136.5303  156.8707 O.2     1  UNL1       -0.4122
     14 C         144.0219  131.3434  155.0975 C.ar    1  UNL1        0.1387
     15 C         144.6212  132.0504  156.2768 C.ar    1  UNL1        0.0371
     16 C         144.1397  133.4200  156.6543 C.ar    1  UNL1        0.0078
     17 C         143.0590  134.0825  155.8524 C.ar    1  UNL1        0.0553
     18 C         142.4597  133.3754  154.6731 C.ar    1  UNL1        0.0078
     19 C         142.9412  132.0059  154.2956 C.ar    1  UNL1        0.0371
     20 C         144.6888  129.6157  153.2753 C.3     1  UNL1        0.2525
     21 O         144.5034  129.9738  154.7200 O.3     1  UNL1       -0.4714
     22 O         144.4019  139.3019  163.4909 O.3     1  UNL1       -0.4791
     23 C         143.3343  139.4988  164.5259 C.ar    1  UNL1        0.1384
     24 C         142.0773  140.2385  164.1755 C.ar    1  UNL1        0.0366
     25 C         141.0096  140.4354  165.2105 C.ar    1  UNL1        0.0002
     26 C         141.1989  139.8926  166.5960 C.ar    1  UNL1       -0.0059
     27 C         142.4559  139.1529  166.9465 C.ar    1  UNL1        0.0002
     28 C         143.5236  138.9560  165.9114 C.ar    1  UNL1        0.0366
     29 C         140.1312  140.0895  167.6311 C.3     1  UNL1        0.0993
     30 N         140.4009  140.9444  168.8336 N.3     1  UNL1       -0.2646
     31 C         140.4186  142.4386  168.7028 C.3     1  UNL1        0.1049
     32 C         140.6883  143.2936  169.9054 C.3     1  UNL1        0.1595
     33 O         140.9403  142.6544  171.2388 O.3     1  UNL1       -0.3508
     34 C         140.9225  141.1602  171.3696 C.3     1  UNL1        0.1595
     35 C         140.6528  140.3052  170.1670 C.3     1  UNL1        0.1049
@<TRIPOS>BOND
     1    20    21    1
     2    21    14    1
     3    14    15   ar
     4    15    16   ar
     5    16    17   ar
     6    17     9    1
     7     9    10   ar
     8    10    11   ar
     9    11    12   ar
    10    12     1    1
    11     1     2    2
    12     1     3   am
    13     3     4    1
    14     4     5    1
    15     5     6    1
    16     6    22    1
    17    22    23    1
    18    23    24   ar
    19    24    25   ar
    20    25    26   ar
    21    26    29    1
    22    29    30    1
    23    30    31    1
    24    31    32    1
    25    32    33    1
    26    33    34    1
    27    34    35    1
    28    26    27   ar
    29    27    28   ar
    30     6     7    1
    31     7     8    1
    32    12    13   ar
    33    17    18   ar
    34    18    19   ar
    35    19    14   ar
    36    13     9   ar
    37     8     3    1
    38    28    23   ar
    39    35    30    1
@<TRIPOS>MOLECULE
*****
 35 39 0 0 0
SMALL
GASTEIGER

@<TRIPOS>ATOM
      1 C         139.5757  139.2313  157.6522 C.2     1  UNL1        0.3045
      2 O         138.7953  140.0172  156.6407 O.2     1  UNL1       -0.2647
      3 N         139.1939  139.2864  159.1018 N.am    1  UNL1       -0.2720
      4 C         139.9743  138.5004  160.1133 C.3     1  UNL1        0.0976
      5 C         139.5925  138.5555  161.5628 C.3     1  UNL1        0.0651
      6 C         138.4303  139.3965  162.0008 C.3     1  UNL1        0.1693
      7 C         137.6499  140.1825  160.9893 C.3     1  UNL1        0.0651
      8 C         138.0317  140.1274  159.5397 C.3     1  UNL1        0.0976
      9 C         142.0671  136.5107  156.4452 C.ar    1  UNL1        0.2501
     10 N         142.9857  137.6812  156.6351 N.ar    1  UNL1       -0.1068
     11 N         142.1643  138.8429  157.1103 N.ar    1  UNL1       -0.1021
     12 C         140.7379  138.3903  157.2142 C.ar    1  UNL1        0.3042
     13 O         140.6779  136.9489  156.8031 O.2     1  UNL1       -0.4122
     14 C         143.2680  132.4054  155.0473 C.ar    1  UNL1        0.1387
     15 C         144.0808  133.1091  156.0932 C.ar    1  UNL1        0.0371
     16 C         143.6805  134.4776  156.5592 C.ar    1  UNL1        0.0078
     17 C         142.4674  135.1423  155.9792 C.ar    1  UNL1        0.0553
     18 C         141.6546  134.4386  154.9333 C.ar    1  UNL1        0.0078
     19 C         142.0549  133.0701  154.4673 C.ar    1  UNL1        0.0371
     20 C         144.7653  130.2957  155.2864 C.3     1  UNL1        0.2525
     21 O         143.6683  131.0370  154.5813 O.3     1  UNL1       -0.4714
     22 O         138.0484  139.4516  163.4504 O.3     1  UNL1       -0.4791
     23 C         138.9514  140.1284  164.4386 C.ar    1  UNL1        0.1384
     24 C         139.7472  141.3311  164.0261 C.ar    1  UNL1        0.0366
     25 C         140.6501  142.0079  165.0144 C.ar    1  UNL1        0.0002
     26 C         140.7573  141.4819  166.4151 C.ar    1  UNL1       -0.0059
     27 C         139.9615  140.2792  166.8275 C.ar    1  UNL1        0.0002
     28 C         139.0585  139.6024  165.8393 C.ar    1  UNL1        0.0366
     29 C         141.6603  142.1588  167.4033 C.3     1  UNL1        0.0993
     30 N         141.3126  142.1546  168.8624 N.3     1  UNL1       -0.2646
     31 C         140.1909  143.0124  169.3685 C.3     1  UNL1        0.1049
     32 C         139.8431  143.0083  170.8276 C.3     1  UNL1        0.1595
     33 O         140.6170  142.1464  171.7806 O.3     1  UNL1       -0.3508
     34 C         141.7386  141.2886  171.2745 C.3     1  UNL1        0.1595
     35 C         142.0864  141.2928  169.8154 C.3     1  UNL1        0.1049
@<TRIPOS>BOND
     1    20    21    1
     2    21    14    1
     3    14    15   ar
     4    15    16   ar
     5    16    17   ar
     6    17     9    1
     7     9    10   ar
     8    10    11   ar
     9    11    12   ar
    10    12     1    1
    11     1     2    2
    12     1     3   am
    13     3     4    1
    14     4     5    1
    15     5     6    1
    16     6    22    1
    17    22    23    1
    18    23    24   ar
    19    24    25   ar
    20    25    26   ar
    21    26    29    1
    22    29    30    1
    23    30    31    1
    24    31    32    1
    25    32    33    1
    26    33    34    1
    27    34    35    1
    28    26    27   ar
    29    27    28   ar
    30     6     7    1
    31     7     8    1
    32    12    13   ar
    33    17    18   ar
    34    18    19   ar
    35    19    14   ar
    36    13     9   ar
    37     8     3    1
    38    28    23   ar
    39    35    30    1
@<TRIPOS>MOLECULE
*****
 35 39 0 0 0
SMALL
GASTEIGER

@<TRIPOS>ATOM
      1 C         139.0948  141.0951  157.7777 C.2     1  UNL1        0.3045
      2 O         139.3483  142.3713  157.0313 O.2     1  UNL1       -0.2647
      3 N         138.6812  141.1387  159.2189 N.am    1  UNL1       -0.2720
      4 C         138.4277  139.8625  159.9654 C.3     1  UNL1        0.0976
      5 C         138.0142  139.9061  161.4065 C.3     1  UNL1        0.0651
      6 C         137.8540  141.2258  162.1013 C.3     1  UNL1        0.1693
      7 C         138.1075  142.5019  161.3548 C.3     1  UNL1        0.0651
      8 C         138.5211  142.4584  159.9136 C.3     1  UNL1        0.0976
      9 C         140.1819  137.6663  156.3194 C.ar    1  UNL1        0.2501
     10 N         138.8210  137.8229  155.7082 N.ar    1  UNL1       -0.1068
     11 N         138.2482  139.1265  156.1800 N.ar    1  UNL1       -0.1021
     12 C         139.2549  139.7754  157.0829 C.ar    1  UNL1        0.3042
     13 O         140.4500  138.8730  157.1690 O.2     1  UNL1       -0.4122
     14 C         142.9702  134.1871  155.7110 C.ar    1  UNL1        0.1387
     15 C         141.7461  134.3257  154.8553 C.ar    1  UNL1        0.0371
     16 C         140.8167  135.4854  155.0581 C.ar    1  UNL1        0.0078
     17 C         141.1113  136.5065  156.1166 C.ar    1  UNL1        0.0553
     18 C         142.3354  136.3679  156.9723 C.ar    1  UNL1        0.0078
     19 C         143.2649  135.2082  156.7695 C.ar    1  UNL1        0.0371
     20 C         144.6096  132.4209  156.6821 C.3     1  UNL1        0.2525
     21 O         143.8997  133.0273  155.5082 O.3     1  UNL1       -0.4714
     22 O         137.4404  141.2693  163.5425 O.3     1  UNL1       -0.4791
     23 C         138.4299  140.9292  164.6173 C.ar    1  UNL1        0.1384
     24 C         139.7015  141.7148  164.7419 C.ar    1  UNL1        0.0366
     25 C         140.6910  141.3747  165.8167 C.ar    1  UNL1        0.0002
     26 C         140.4087  140.2490  166.7670 C.ar    1  UNL1       -0.0059
     27 C         139.1370  139.4633  166.6424 C.ar    1  UNL1        0.0002
     28 C         138.1476  139.8034  165.5676 C.ar    1  UNL1        0.0366
     29 C         141.3983  139.9089  167.8419 C.3     1  UNL1        0.0993
     30 N         141.6103  140.8493  168.9909 N.3     1  UNL1       -0.2646
     31 C         142.7436  141.8315  168.9569 C.3     1  UNL1        0.1049
     32 C         142.9557  142.7720  170.1060 C.3     1  UNL1        0.1595
     33 O         142.0346  142.7304  171.2891 O.3     1  UNL1       -0.3508
     34 C         140.9014  141.7482  171.3231 C.3     1  UNL1        0.1595
     35 C         140.6892  140.8077  170.1740 C.3     1  UNL1        0.1049
@<TRIPOS>BOND
     1    20    21    1
     2    21    14    1
     3    14    15   ar
     4    15    16   ar
     5    16    17   ar
     6    17     9    1
     7     9    10   ar
     8    10    11   ar
     9    11    12   ar
    10    12     1    1
    11     1     2    2
    12     1     3   am
    13     3     4    1
    14     4     5    1
    15     5     6    1
    16     6    22    1
    17    22    23    1
    18    23    24   ar
    19    24    25   ar
    20    25    26   ar
    21    26    29    1
    22    29    30    1
    23    30    31    1
    24    31    32    1
    25    32    33    1
    26    33    34    1
    27    34    35    1
    28    26    27   ar
    29    27    28   ar
    30     6     7    1
    31     7     8    1
    32    12    13   ar
    33    17    18   ar
    34    18    19   ar
    35    19    14   ar
    36    13     9   ar
    37     8     3    1
    38    28    23   ar
    39    35    30    1
@<TRIPOS>MOLECULE
*****
 35 39 0 0 0
SMALL
GASTEIGER

@<TRIPOS>ATOM
      1 C         140.4870  143.8023  157.6445 C.2     1  UNL1        0.3045
      2 O         140.9461  142.5023  157.0534 O.2     1  UNL1       -0.2647
      3 N         140.7461  144.1014  159.0913 N.am    1  UNL1       -0.2720
      4 C         140.2870  145.4013  159.6823 C.3     1  UNL1        0.0976
      5 C         140.5461  145.7004  161.1291 C.3     1  UNL1        0.0651
      6 C         141.2642  144.6996  161.9850 C.3     1  UNL1        0.1693
      7 C         141.7233  143.3996  161.3940 C.3     1  UNL1        0.0651
      8 C         141.4642  143.1005  159.9471 C.3     1  UNL1        0.0976
      9 C         139.1510  146.8732  155.6823 C.ar    1  UNL1        0.2501
     10 N         138.1765  145.8135  155.2608 N.ar    1  UNL1       -0.1068
     11 N         138.5584  144.5342  155.9445 N.ar    1  UNL1       -0.1021
     12 C         139.7688  144.8031  156.7886 C.ar    1  UNL1        0.3042
     13 O         140.1351  146.2487  156.6265 O.2     1  UNL1       -0.4122
     14 C         139.1263  151.1708  154.3483 C.ar    1  UNL1        0.1387
     15 C         138.4829  150.7850  155.6472 C.ar    1  UNL1        0.0371
     16 C         138.4912  149.3524  156.0919 C.ar    1  UNL1        0.0078
     17 C         139.1427  148.3057  155.2376 C.ar    1  UNL1        0.0553
     18 C         139.7861  148.6915  153.9387 C.ar    1  UNL1        0.0078
     19 C         139.7778  150.1241  153.4941 C.ar    1  UNL1        0.0371
     20 C         138.4423  153.6457  154.7443 C.3     1  UNL1        0.2525
     21 O         139.1180  152.6034  153.9037 O.3     1  UNL1       -0.4714
     22 O         141.5233  144.9987  163.4319 O.3     1  UNL1       -0.4791
     23 C         141.7094  143.8754  164.4083 C.ar    1  UNL1        0.1384
     24 C         140.5140  143.2179  165.0319 C.ar    1  UNL1        0.0366
     25 C         140.7001  142.0946  166.0083 C.ar    1  UNL1        0.0002
     26 C         142.0816  141.6287  166.3612 C.ar    1  UNL1       -0.0059
     27 C         143.2769  142.2861  165.7377 C.ar    1  UNL1        0.0002
     28 C         143.0909  143.4094  164.7612 C.ar    1  UNL1        0.0366
     29 C         142.2676  140.5053  167.3377 C.3     1  UNL1        0.0993
     30 N         141.6468  140.5858  168.7008 N.3     1  UNL1       -0.2646
     31 C         140.2203  140.1676  168.9011 C.3     1  UNL1        0.1049
     32 C         139.5994  140.2481  170.2642 C.3     1  UNL1        0.1595
     33 O         140.4051  140.7468  171.4270 O.3     1  UNL1       -0.3508
     34 C         141.8317  141.1650  171.2267 C.3     1  UNL1        0.1595
     35 C         142.4525  141.0845  169.8636 C.3     1  UNL1        0.1049
@<TRIPOS>BOND
     1    20    21    1
     2    21    14    1
     3    14    15   ar
     4    15    16   ar
     5    16    17   ar
     6    17     9    1
     7     9    10   ar
     8    10    11   ar
     9    11    12   ar
    10    12     1    1
    11     1     2    2
    12     1     3   am
    13     3     4    1
    14     4     5    1
    15     5     6    1
    16     6    22    1
    17    22    23    1
    18    23    24   ar
    19    24    25   ar
    20    25    26   ar
    21    26    29    1
    22    29    30    1
    23    30    31    1
    24    31    32    1
    25    32    33    1
    26    33    34    1
    27    34    35    1
    28    26    27   ar
    29    27    28   ar
    30     6     7    1
    31     7     8    1
    32    12    13   ar
    33    17    18   ar
    34    18    19   ar
    35    19    14   ar
    36    13     9   ar
    37     8     3    1
    38    28    23   ar
    39    35    30    1
@<TRIPOS>MOLECULE
*****
 35 39 0 0 0
SMALL
GASTEIGER

@<TRIPOS>ATOM
      1 C         138.7142  139.0385  161.3287 C.2     1  UNL1        0.3045
      2 O         137.3841  139.4737  160.7891 O.2     1  UNL1       -0.2647
      3 N         139.8302  138.6962  160.3867 N.am    1  UNL1       -0.2720
      4 C         141.1604  138.2610  160.9263 C.3     1  UNL1        0.0976
      5 C         142.2763  137.9187  159.9843 C.3     1  UNL1        0.0651
      6 C         142.0621  138.0116  158.5026 C.3     1  UNL1        0.1693
      7 C         140.7319  138.4468  157.9630 C.3     1  UNL1        0.0651
      8 C         139.6160  138.7891  158.9050 C.3     1  UNL1        0.0976
      9 C         139.4066  139.5375  165.1152 C.ar    1  UNL1        0.2501
     10 N         139.1096  138.0681  165.0660 N.ar    1  UNL1       -0.1068
     11 N         138.8141  137.7022  163.6416 N.ar    1  UNL1       -0.1021
     12 C         138.9284  138.9456  162.8104 C.ar    1  UNL1        0.3042
     13 O         139.2946  140.0799  163.7211 O.2     1  UNL1       -0.4122
     14 C         140.4501  141.9035  168.7980 C.ar    1  UNL1        0.1387
     15 C         140.8397  142.4147  167.4428 C.ar    1  UNL1        0.0371
     16 C         140.4919  141.6261  166.2151 C.ar    1  UNL1        0.0078
     17 C         139.7544  140.3262  166.3428 C.ar    1  UNL1        0.0553
     18 C         139.3648  139.8149  167.6980 C.ar    1  UNL1        0.0078
     19 C         139.7127  140.6035  168.9257 C.ar    1  UNL1        0.0371
     20 C         142.2135  143.1297  170.2598 C.3     1  UNL1        0.2525
     21 O         140.7980  142.6921  170.0256 O.3     1  UNL1       -0.4714
     22 O         143.1781  137.6693  157.5606 O.3     1  UNL1       -0.4791
     23 C         143.0821  136.4466  156.6970 C.ar    1  UNL1        0.1384
     24 C         143.2730  135.0862  157.2992 C.ar    1  UNL1        0.0366
     25 C         143.1770  133.8635  156.4356 C.ar    1  UNL1        0.0002
     26 C         142.8902  134.0013  154.9698 C.ar    1  UNL1       -0.0059
     27 C         142.6993  135.3617  154.3675 C.ar    1  UNL1        0.0002
     28 C         142.7953  136.5844  155.2311 C.ar    1  UNL1        0.0366
     29 C         142.7942  132.7785  154.1061 C.3     1  UNL1        0.0993
     30 N         142.9614  131.4169  154.7126 N.3     1  UNL1       -0.2646
     31 C         141.7539  130.6023  155.0713 C.3     1  UNL1        0.1049
     32 C         141.9210  129.2406  155.6779 C.3     1  UNL1        0.1595
     33 O         143.2954  128.6935  155.9257 O.3     1  UNL1       -0.3508
     34 C         144.5029  129.5081  155.5671 C.3     1  UNL1        0.1595
     35 C         144.3358  130.8697  154.9605 C.3     1  UNL1        0.1049
@<TRIPOS>BOND
     1    20    21    1
     2    21    14    1
     3    14    15   ar
     4    15    16   ar
     5    16    17   ar
     6    17     9    1
     7     9    10   ar
     8    10    11   ar
     9    11    12   ar
    10    12     1    1
    11     1     2    2
    12     1     3   am
    13     3     4    1
    14     4     5    1
    15     5     6    1
    16     6    22    1
    17    22    23    1
    18    23    24   ar
    19    24    25   ar
    20    25    26   ar
    21    26    29    1
    22    29    30    1
    23    30    31    1
    24    31    32    1
    25    32    33    1
    26    33    34    1
    27    34    35    1
    28    26    27   ar
    29    27    28   ar
    30     6     7    1
    31     7     8    1
    32    12    13   ar
    33    17    18   ar
    34    18    19   ar
    35    19    14   ar
    36    13     9   ar
    37     8     3    1
    38    28    23   ar
    39    35    30    1
@<TRIPOS>MOLECULE
*****
 35 39 0 0 0
SMALL
GASTEIGER

@<TRIPOS>ATOM
      1 C         138.5710  139.8896  159.8481 C.2     1  UNL1        0.3045
      2 O         137.2680  139.9193  159.1056 O.2     1  UNL1       -0.2647
      3 N         139.7700  139.2306  159.2331 N.am    1  UNL1       -0.2720
      4 C         141.0729  139.2010  159.9757 C.3     1  UNL1        0.0976
      5 C         142.2718  138.5421  159.3607 C.3     1  UNL1        0.0651
      6 C         142.1678  137.9127  158.0030 C.3     1  UNL1        0.1693
      7 C         140.8649  137.9424  157.2605 C.3     1  UNL1        0.0651
      8 C         139.6659  138.6014  157.8755 C.3     1  UNL1        0.0976
      9 C         138.8768  140.8066  163.6073 C.ar    1  UNL1        0.2501
     10 N         138.7931  142.1679  162.9827 N.ar    1  UNL1       -0.1068
     11 N         138.6684  141.9901  161.4985 N.ar    1  UNL1       -0.1021
     12 C         138.6750  140.5189  161.2058 C.ar    1  UNL1        0.3042
     13 O         138.8038  139.7876  162.5091 O.2     1  UNL1       -0.4122
     14 C         139.2767  139.9336  168.0036 C.ar    1  UNL1        0.1387
     15 C         140.0843  141.0335  167.3809 C.ar    1  UNL1        0.0371
     16 C         139.9510  141.3245  165.9155 C.ar    1  UNL1        0.0078
     17 C         139.0101  140.5156  165.0727 C.ar    1  UNL1        0.0553
     18 C         138.2025  139.4157  165.6954 C.ar    1  UNL1        0.0078
     19 C         138.3358  139.1247  167.1609 C.ar    1  UNL1        0.0371
     20 C         140.6791  139.9884  170.1900 C.3     1  UNL1        0.2525
     21 O         139.4100  139.6426  169.4691 O.3     1  UNL1       -0.4714
     22 O         143.3668  137.2538  157.3880 O.3     1  UNL1       -0.4791
     23 C         143.1934  136.0483  156.5123 C.ar    1  UNL1        0.1384
     24 C         142.9093  136.2187  155.0493 C.ar    1  UNL1        0.0366
     25 C         142.7358  135.0133  154.1737 C.ar    1  UNL1        0.0002
     26 C         142.8465  133.6375  154.7609 C.ar    1  UNL1       -0.0059
     27 C         143.1306  133.4671  156.2239 C.ar    1  UNL1        0.0002
     28 C         143.3040  134.6725  157.0996 C.ar    1  UNL1        0.0366
     29 C         142.6731  132.4320  153.8852 C.3     1  UNL1        0.0993
     30 N         141.9361  131.2311  154.3994 N.3     1  UNL1       -0.2646
     31 C         142.6968  130.0771  154.9823 C.3     1  UNL1        0.1049
     32 C         141.9598  128.8762  155.4966 C.3     1  UNL1        0.1595
     33 O         140.4621  128.8292  155.4280 O.3     1  UNL1       -0.3508
     34 C         139.7014  129.9831  154.8451 C.3     1  UNL1        0.1595
     35 C         140.4384  131.1841  154.3308 C.3     1  UNL1        0.1049
@<TRIPOS>BOND
     1    20    21    1
     2    21    14    1
     3    14    15   ar
     4    15    16   ar
     5    16    17   ar
     6    17     9    1
     7     9    10   ar
     8    10    11   ar
     9    11    12   ar
    10    12     1    1
    11     1     2    2
    12     1     3   am
    13     3     4    1
    14     4     5    1
    15     5     6    1
    16     6    22    1
    17    22    23    1
    18    23    24   ar
    19    24    25   ar
    20    25    26   ar
    21    26    29    1
    22    29    30    1
    23    30    31    1
    24    31    32    1
    25    32    33    1
    26    33    34    1
    27    34    35    1
    28    26    27   ar
    29    27    28   ar
    30     6     7    1
    31     7     8    1
    32    12    13   ar
    33    17    18   ar
    34    18    19   ar
    35    19    14   ar
    36    13     9   ar
    37     8     3    1
    38    28    23   ar
    39    35    30    1
@<TRIPOS>MOLECULE
*****
 35 39 0 0 0
SMALL
GASTEIGER

@<TRIPOS>ATOM
      1 C         142.9199  138.9173  157.7019 C.2     1  UNL1        0.3045
      2 O         144.0982  139.8394  157.5959 O.2     1  UNL1       -0.2647
      3 N         141.7635  139.2767  158.5872 N.am    1  UNL1       -0.2720
      4 C         140.5852  138.3545  158.6932 C.3     1  UNL1        0.0976
      5 C         139.4289  138.7139  159.5784 C.3     1  UNL1        0.0651
      6 C         139.4508  139.9954  160.3576 C.3     1  UNL1        0.1693
      7 C         140.6291  140.9175  160.2516 C.3     1  UNL1        0.0651
      8 C         141.7855  140.5581  159.3664 C.3     1  UNL1        0.0976
      9 C         143.2282  135.3185  156.2810 C.ar    1  UNL1        0.2501
     10 N         142.5003  136.0090  155.1660 N.ar    1  UNL1       -0.1068
     11 N         142.2962  137.4412  155.5625 N.ar    1  UNL1       -0.1021
     12 C         142.8979  137.6358  156.9226 C.ar    1  UNL1        0.3042
     13 O         143.4739  136.3239  157.3667 O.2     1  UNL1       -0.4122
     14 C         144.4585  130.9906  156.3560 C.ar    1  UNL1        0.1387
     15 C         144.7343  131.8693  157.5400 C.ar    1  UNL1        0.0371
     16 C         144.3242  133.3119  157.5150 C.ar    1  UNL1        0.0078
     17 C         143.6383  133.8758  156.3060 C.ar    1  UNL1        0.0553
     18 C         143.3625  132.9971  155.1221 C.ar    1  UNL1        0.0078
     19 C         143.7726  131.5545  155.1471 C.ar    1  UNL1        0.0371
     20 C         144.0589  128.5514  157.1564 C.3     1  UNL1        0.2525
     21 O         144.8686  129.5479  156.3811 O.3     1  UNL1       -0.4714
     22 O         138.2944  140.3547  161.2429 O.3     1  UNL1       -0.4791
     23 C         138.3602  140.0719  162.7145 C.ar    1  UNL1        0.1384
     24 C         138.0915  141.1688  163.7017 C.ar    1  UNL1        0.0366
     25 C         138.1573  140.8860  165.1733 C.ar    1  UNL1        0.0002
     26 C         138.4919  139.5064  165.6577 C.ar    1  UNL1       -0.0059
     27 C         138.7606  138.4095  164.6705 C.ar    1  UNL1        0.0002
     28 C         138.6948  138.6923  163.1989 C.ar    1  UNL1        0.0366
     29 C         138.5577  139.2236  167.1294 C.3     1  UNL1        0.0993
     30 N         139.6221  139.8648  167.9695 N.3     1  UNL1       -0.2646
     31 C         141.0173  140.0021  167.4360 C.3     1  UNL1        0.1049
     32 C         142.0818  140.6433  168.2760 C.3     1  UNL1        0.1595
     33 O         141.7512  141.1471  169.6496 O.3     1  UNL1       -0.3508
     34 C         140.3560  141.0098  170.1832 C.3     1  UNL1        0.1595
     35 C         139.2915  140.3686  169.3431 C.3     1  UNL1        0.1049
@<TRIPOS>BOND
     1    20    21    1
     2    21    14    1
     3    14    15   ar
     4    15    16   ar
     5    16    17   ar
     6    17     9    1
     7     9    10   ar
     8    10    11   ar
     9    11    12   ar
    10    12     1    1
    11     1     2    2
    12     1     3   am
    13     3     4    1
    14     4     5    1
    15     5     6    1
    16     6    22    1
    17    22    23    1
    18    23    24   ar
    19    24    25   ar
    20    25    26   ar
    21    26    29    1
    22    29    30    1
    23    30    31    1
    24    31    32    1
    25    32    33    1
    26    33    34    1
    27    34    35    1
    28    26    27   ar
    29    27    28   ar
    30     6     7    1
    31     7     8    1
    32    12    13   ar
    33    17    18   ar
    34    18    19   ar
    35    19    14   ar
    36    13     9   ar
    37     8     3    1
    38    28    23   ar
    39    35    30    1
@<TRIPOS>MOLECULE
*****
 35 39 0 0 0
SMALL
GASTEIGER

@<TRIPOS>ATOM
      1 C         138.1599  143.2386  155.1114 C.2     1  UNL1        0.3045
      2 O         138.2811  143.8485  153.7464 O.2     1  UNL1       -0.2647
      3 N         138.9891  143.7657  156.2448 N.am    1  UNL1       -0.2720
      4 C         138.8679  143.1558  157.6098 C.3     1  UNL1        0.0976
      5 C         139.6970  143.6829  158.7431 C.3     1  UNL1        0.0651
      6 C         140.6474  144.8200  158.5115 C.3     1  UNL1        0.1693
      7 C         140.7686  145.4300  157.1465 C.3     1  UNL1        0.0651
      8 C         139.9394  144.9028  156.0131 C.3     1  UNL1        0.0976
      9 C         135.1898  140.8406  155.8141 C.ar    1  UNL1        0.2501
     10 N         136.3039  139.8627  155.5847 N.ar    1  UNL1       -0.1068
     11 N         137.5521  140.6419  155.2935 N.ar    1  UNL1       -0.1021
     12 C         137.2094  142.1014  155.3430 C.ar    1  UNL1        0.3042
     13 O         135.7495  142.2242  155.6648 O.2     1  UNL1       -0.4122
     14 C         130.9186  139.8051  156.7809 C.ar    1  UNL1        0.1387
     15 C         132.0367  138.9800  157.3458 C.ar    1  UNL1        0.0371
     16 C         133.4604  139.3252  157.0236 C.ar    1  UNL1        0.0078
     17 C         133.7661  140.4954  156.1364 C.ar    1  UNL1        0.0553
     18 C         132.6480  141.3205  155.5715 C.ar    1  UNL1        0.0078
     19 C         131.2243  140.9753  155.8938 C.ar    1  UNL1        0.0371
     20 C         129.1538  138.8441  158.4277 C.3     1  UNL1        0.2525
     21 O         129.4949  139.4600  157.1032 O.3     1  UNL1       -0.4714
     22 O         141.4766  145.3472  159.6449 O.3     1  UNL1       -0.4791
     23 C         141.1706  144.9334  161.0538 C.ar    1  UNL1        0.1384
     24 C         141.9557  143.8300  161.6988 C.ar    1  UNL1        0.0366
     25 C         141.6497  143.4163  163.1077 C.ar    1  UNL1        0.0002
     26 C         140.5585  144.1060  163.8717 C.ar    1  UNL1       -0.0059
     27 C         139.7734  145.2095  163.2267 C.ar    1  UNL1        0.0002
     28 C         140.0794  145.6232  161.8178 C.ar    1  UNL1        0.0366
     29 C         140.2525  143.6923  165.2807 C.3     1  UNL1        0.0993
     30 N         139.7022  142.3248  165.5582 N.3     1  UNL1       -0.2646
     31 C         138.7014  141.7149  164.6218 C.3     1  UNL1        0.1049
     32 C         138.1511  140.3474  164.8992 C.3     1  UNL1        0.1595
     33 O         138.6014  139.5897  166.1129 O.3     1  UNL1       -0.3508
     34 C         139.6022  140.1996  167.0492 C.3     1  UNL1        0.1595
     35 C         140.1525  141.5671  166.7718 C.3     1  UNL1        0.1049
@<TRIPOS>BOND
     1    20    21    1
     2    21    14    1
     3    14    15   ar
     4    15    16   ar
     5    16    17   ar
     6    17     9    1
     7     9    10   ar
     8    10    11   ar
     9    11    12   ar
    10    12     1    1
    11     1     2    2
    12     1     3   am
    13     3     4    1
    14     4     5    1
    15     5     6    1
    16     6    22    1
    17    22    23    1
    18    23    24   ar
    19    24    25   ar
    20    25    26   ar
    21    26    29    1
    22    29    30    1
    23    30    31    1
    24    31    32    1
    25    32    33    1
    26    33    34    1
    27    34    35    1
    28    26    27   ar
    29    27    28   ar
    30     6     7    1
    31     7     8    1
    32    12    13   ar
    33    17    18   ar
    34    18    19   ar
    35    19    14   ar
    36    13     9   ar
    37     8     3    1
    38    28    23   ar
    39    35    30    1
