@<TRIPOS>MOLECULE
*****
 26 29 0 0 0
SMALL
GASTEIGER

@<TRIPOS>ATOM
      1 N         141.5765  141.1093  166.6807 N.ar    1  UNL1       -0.3123
      2 C         142.6842  142.0827  166.4058 C.ar    1  UNL1        0.1213
      3 N         143.2781  142.4925  167.7208 N.ar    1  UNL1       -0.2309
      4 C         142.5374  141.7724  168.8084 C.ar    1  UNL1        0.0983
      5 C         142.6848  141.7847  170.3011 C.ar    1  UNL1        0.0206
      6 C         141.7804  140.9421  171.1509 C.ar    1  UNL1        0.0016
      7 C         140.7288  140.0873  170.5081 C.ar    1  UNL1        0.0016
      8 C         140.5815  140.0750  169.0154 C.ar    1  UNL1        0.0188
      9 C         141.4858  140.9175  168.1656 C.ar    1  UNL1        0.0787
     10 C         143.1212  142.5620  165.0533 C.3     1  UNL1        0.0729
     11 C         144.5142  142.2820  164.5723 C.3     1  UNL1        0.0103
     12 C         144.9512  142.7614  163.2199 C.3     1  UNL1        0.0178
     13 C         143.9954  143.5208  162.3483 C.3     1  UNL1        0.0721
     14 N         142.6025  143.8008  162.8293 N.3     1  UNL1       -0.2734
     15 C         142.1654  143.3214  164.1818 C.3     1  UNL1        0.0795
     16 C         141.6465  144.5603  161.9577 C.3     1  UNL1        0.0625
     17 C         140.6533  145.4997  162.5749 C.3     1  UNL1        0.0481
     18 C         139.6974  146.2591  161.7035 C.3     1  UNL1        0.1435
     19 O         139.7347  146.0791  160.2147 O.3     1  UNL1       -0.3537
     20 C         140.7280  145.1398  159.5975 C.3     1  UNL1        0.1435
     21 C         141.6839  144.3803  160.4691 C.3     1  UNL1        0.0481
     22 C         140.7114  140.4444  165.6514 C.3     1  UNL1        0.1392
     23 C         139.3258  140.9570  165.3918 C.3     1  UNL1        0.1666
     24 O         138.1571  140.0180  165.4415 O.3     1  UNL1       -0.3517
     25 C         137.4420  138.2925  167.2474 C.3     1  UNL1        0.0346
     26 C         138.3056  138.6689  166.0801 C.3     1  UNL1        0.1423
@<TRIPOS>BOND
     1    25    26    1
     2    26    24    1
     3    24    23    1
     4    23    22    1
     5    22     1    1
     6     1     2   ar
     7    10     2    1
     8    10    11    1
     9    11    12    1
    10    12    13    1
    11    13    14    1
    12    14    16    1
    13    16    17    1
    14    17    18    1
    15    18    19    1
    16    19    20    1
    17    20    21    1
    18    14    15    1
    19     2     3   ar
    20     3     4   ar
    21     4     5   ar
    22     5     6   ar
    23     6     7   ar
    24     7     8   ar
    25     8     9   ar
    26     9     1   ar
    27    15    10    1
    28     9     4   ar
    29    21    16    1
@<TRIPOS>MOLECULE
*****
 26 29 0 0 0
SMALL
GASTEIGER

@<TRIPOS>ATOM
      1 N         141.4858  141.2098  166.7914 N.ar    1  UNL1       -0.3123
      2 C         142.6232  142.1478  166.5151 C.ar    1  UNL1        0.1213
      3 N         143.2311  142.5390  167.8294 N.ar    1  UNL1       -0.2309
      4 C         142.4693  141.8429  168.9180 C.ar    1  UNL1        0.0983
      5 C         142.6185  141.8509  170.4105 C.ar    1  UNL1        0.0206
      6 C         141.6890  141.0374  171.2615 C.ar    1  UNL1        0.0016
      7 C         140.6103  140.2159  170.6200 C.ar    1  UNL1        0.0016
      8 C         140.4611  140.2079  169.1275 C.ar    1  UNL1        0.0188
      9 C         141.3906  141.0214  168.2765 C.ar    1  UNL1        0.0787
     10 C         143.0737  142.6129  165.1620 C.3     1  UNL1        0.0729
     11 C         144.4731  142.3329  164.7003 C.3     1  UNL1        0.0103
     12 C         144.9236  142.7979  163.3472 C.3     1  UNL1        0.0178
     13 C         143.9747  143.5430  162.4559 C.3     1  UNL1        0.0721
     14 N         142.5753  143.8230  162.9177 N.3     1  UNL1       -0.2734
     15 C         142.1248  143.3579  164.2707 C.3     1  UNL1        0.0795
     16 C         141.6264  144.5681  162.0264 C.3     1  UNL1        0.0625
     17 C         140.6285  145.5176  162.6203 C.3     1  UNL1        0.0481
     18 C         139.6796  146.2627  161.7291 C.3     1  UNL1        0.1435
     19 O         139.7285  146.0583  160.2438 O.3     1  UNL1       -0.3537
     20 C         140.7263  145.1088  159.6499 C.3     1  UNL1        0.1435
     21 C         141.6753  144.3637  160.5412 C.3     1  UNL1        0.0481
     22 C         140.5991  140.5722  165.7632 C.3     1  UNL1        0.1392
     23 C         141.0072  139.2814  165.1175 C.3     1  UNL1        0.1666
     24 O         142.2373  139.2274  164.2607 O.3     1  UNL1       -0.3517
     25 C         143.6036  138.3267  166.2786 C.3     1  UNL1        0.0346
     26 C         143.5382  138.7620  164.8447 C.3     1  UNL1        0.1423
@<TRIPOS>BOND
     1    25    26    1
     2    26    24    1
     3    24    23    1
     4    23    22    1
     5    22     1    1
     6     1     2   ar
     7    10     2    1
     8    10    11    1
     9    11    12    1
    10    12    13    1
    11    13    14    1
    12    14    16    1
    13    16    17    1
    14    17    18    1
    15    18    19    1
    16    19    20    1
    17    20    21    1
    18    14    15    1
    19     2     3   ar
    20     3     4   ar
    21     4     5   ar
    22     5     6   ar
    23     6     7   ar
    24     7     8   ar
    25     8     9   ar
    26     9     1   ar
    27    15    10    1
    28     9     4   ar
    29    21    16    1
@<TRIPOS>MOLECULE
*****
 26 29 0 0 0
SMALL
GASTEIGER

@<TRIPOS>ATOM
      1 N         141.7665  140.9956  166.6717 N.ar    1  UNL1       -0.3123
      2 C         142.7933  142.0488  166.3781 C.ar    1  UNL1        0.1213
      3 N         143.3284  142.5519  167.6860 N.ar    1  UNL1       -0.2309
      4 C         142.6323  141.8095  168.7879 C.ar    1  UNL1        0.0983
      5 C         142.7528  141.8851  170.2811 C.ar    1  UNL1        0.0206
      6 C         141.9079  140.9988  171.1475 C.ar    1  UNL1        0.0016
      7 C         140.9425  140.0370  170.5207 C.ar    1  UNL1        0.0016
      8 C         140.8221  139.9614  169.0275 C.ar    1  UNL1        0.0188
      9 C         141.6670  140.8476  168.1611 C.ar    1  UNL1        0.0787
     10 C         143.2116  142.5169  165.0157 C.3     1  UNL1        0.0729
     11 C         144.5941  142.2232  164.5135 C.3     1  UNL1        0.0103
     12 C         145.0124  142.6913  163.1512 C.3     1  UNL1        0.0178
     13 C         144.0481  143.4530  162.2910 C.3     1  UNL1        0.0721
     14 N         142.6656  143.7467  162.7932 N.3     1  UNL1       -0.2734
     15 C         142.2473  143.2786  164.1556 C.3     1  UNL1        0.0795
     16 C         141.7012  144.5084  161.9331 C.3     1  UNL1        0.0625
     17 C         140.7353  145.4699  162.5596 C.3     1  UNL1        0.0481
     18 C         139.7710  146.2316  161.6995 C.3     1  UNL1        0.1435
     19 O         139.7725  146.0319  160.2128 O.3     1  UNL1       -0.3537
     20 C         140.7384  145.0704  159.5863 C.3     1  UNL1        0.1435
     21 C         141.7028  144.3087  160.4465 C.3     1  UNL1        0.0481
     22 C         140.9776  140.2254  165.6546 C.3     1  UNL1        0.1392
     23 C         139.7252  140.8130  165.0749 C.3     1  UNL1        0.1666
     24 O         139.1479  142.0699  165.6554 O.3     1  UNL1       -0.3517
     25 C         138.5198  144.5469  165.1863 C.3     1  UNL1        0.0346
     26 C         138.5588  143.1118  164.7514 C.3     1  UNL1        0.1423
@<TRIPOS>BOND
     1    25    26    1
     2    26    24    1
     3    24    23    1
     4    23    22    1
     5    22     1    1
     6     1     2   ar
     7    10     2    1
     8    10    11    1
     9    11    12    1
    10    12    13    1
    11    13    14    1
    12    14    16    1
    13    16    17    1
    14    17    18    1
    15    18    19    1
    16    19    20    1
    17    20    21    1
    18    14    15    1
    19     2     3   ar
    20     3     4   ar
    21     4     5   ar
    22     5     6   ar
    23     6     7   ar
    24     7     8   ar
    25     8     9   ar
    26     9     1   ar
    27    15    10    1
    28     9     4   ar
    29    21    16    1
@<TRIPOS>MOLECULE
*****
 26 29 0 0 0
SMALL
GASTEIGER

@<TRIPOS>ATOM
      1 N         141.2348  142.6233  166.6681 N.ar    1  UNL1       -0.3123
      2 C         142.6582  142.6882  166.1993 C.ar    1  UNL1        0.1213
      3 N         143.5468  142.4164  167.3768 N.ar    1  UNL1       -0.2309
      4 C         142.6726  142.1836  168.5734 C.ar    1  UNL1        0.0983
      5 C         142.9931  141.8717  170.0051 C.ar    1  UNL1        0.0206
      6 C         141.8847  141.6877  170.9988 C.ar    1  UNL1        0.0016
      7 C         140.4558  141.8155  170.5608 C.ar    1  UNL1        0.0016
      8 C         140.1353  142.1274  169.1291 C.ar    1  UNL1        0.0188
      9 C         141.2437  142.3115  168.1353 C.ar    1  UNL1        0.0787
     10 C         143.1130  142.9745  164.7989 C.3     1  UNL1        0.0729
     11 C         143.4986  144.3698  164.4061 C.3     1  UNL1        0.0103
     12 C         143.9535  144.6562  163.0058 C.3     1  UNL1        0.0178
     13 C         144.0228  143.5472  161.9982 C.3     1  UNL1        0.0721
     14 N         143.6373  142.1518  162.3910 N.3     1  UNL1       -0.2734
     15 C         143.1824  141.8655  163.7914 C.3     1  UNL1        0.0795
     16 C         143.7066  141.0427  161.3834 C.3     1  UNL1        0.0625
     17 C         143.8910  139.6257  161.8394 C.3     1  UNL1        0.0481
     18 C         143.9604  138.5166  160.8319 C.3     1  UNL1        0.1435
     19 O         143.8453  138.8246  159.3683 O.3     1  UNL1       -0.3537
     20 C         143.6609  140.2417  158.9123 C.3     1  UNL1        0.1435
     21 C         143.5916  141.3507  159.9199 C.3     1  UNL1        0.0481
     22 C         140.0163  142.8334  165.8188 C.3     1  UNL1        0.1392
     23 C         139.4111  141.6788  165.0768 C.3     1  UNL1        0.1666
     24 O         139.4809  140.2964  165.6547 O.3     1  UNL1       -0.3517
     25 C         137.8627  138.6916  166.9022 C.3     1  UNL1        0.0346
     26 C         138.2630  139.4208  165.6539 C.3     1  UNL1        0.1423
@<TRIPOS>BOND
     1    25    26    1
     2    26    24    1
     3    24    23    1
     4    23    22    1
     5    22     1    1
     6     1     2   ar
     7    10     2    1
     8    10    11    1
     9    11    12    1
    10    12    13    1
    11    13    14    1
    12    14    16    1
    13    16    17    1
    14    17    18    1
    15    18    19    1
    16    19    20    1
    17    20    21    1
    18    14    15    1
    19     2     3   ar
    20     3     4   ar
    21     4     5   ar
    22     5     6   ar
    23     6     7   ar
    24     7     8   ar
    25     8     9   ar
    26     9     1   ar
    27    15    10    1
    28     9     4   ar
    29    21    16    1
@<TRIPOS>MOLECULE
*****
 26 29 0 0 0
SMALL
GASTEIGER

@<TRIPOS>ATOM
      1 N         140.8725  141.9038  162.9843 N.ar    1  UNL1       -0.3123
      2 C         139.8182  142.1522  164.0220 C.ar    1  UNL1        0.1213
      3 N         139.1624  143.4649  163.7113 N.ar    1  UNL1       -0.2309
      4 C         139.8114  144.0279  162.4817 C.ar    1  UNL1        0.0983
      5 C         139.5765  145.2944  161.7131 C.ar    1  UNL1        0.0206
      6 C         140.3985  145.5960  160.4953 C.ar    1  UNL1        0.0016
      7 C         141.4555  144.6311  160.0460 C.ar    1  UNL1        0.0016
      8 C         141.6904  143.3646  160.8145 C.ar    1  UNL1        0.0188
      9 C         140.8683  143.0630  162.0324 C.ar    1  UNL1        0.0787
     10 C         139.4792  141.2468  165.1689 C.3     1  UNL1        0.0729
     11 C         138.4509  140.1688  164.9948 C.3     1  UNL1        0.0103
     12 C         138.1119  139.2634  166.1417 C.3     1  UNL1        0.0178
     13 C         138.8012  139.4360  167.4627 C.3     1  UNL1        0.0721
     14 N         139.8296  140.5140  167.6367 N.3     1  UNL1       -0.2734
     15 C         140.1686  141.4194  166.4898 C.3     1  UNL1        0.0795
     16 C         140.5190  140.6867  168.9577 C.3     1  UNL1        0.0625
     17 C         141.7460  139.8839  169.2739 C.3     1  UNL1        0.0481
     18 C         142.4354  140.0565  170.5948 C.3     1  UNL1        0.1435
     19 O         141.8979  141.0321  171.5996 O.3     1  UNL1       -0.3537
     20 C         140.6709  141.8349  171.2834 C.3     1  UNL1        0.1435
     21 C         139.9815  141.6622  169.9624 C.3     1  UNL1        0.0481
     22 C         141.7730  140.7063  162.9114 C.3     1  UNL1        0.1392
     23 C         141.4081  139.5458  162.0341 C.3     1  UNL1        0.1666
     24 O         140.0952  138.8457  162.2239 O.3     1  UNL1       -0.3517
     25 C         141.0654  137.2196  164.0028 C.3     1  UNL1        0.0346
     26 C         140.0422  137.5355  162.9524 C.3     1  UNL1        0.1423
@<TRIPOS>BOND
     1    25    26    1
     2    26    24    1
     3    24    23    1
     4    23    22    1
     5    22     1    1
     6     1     2   ar
     7    10     2    1
     8    10    11    1
     9    11    12    1
    10    12    13    1
    11    13    14    1
    12    14    16    1
    13    16    17    1
    14    17    18    1
    15    18    19    1
    16    19    20    1
    17    20    21    1
    18    14    15    1
    19     2     3   ar
    20     3     4   ar
    21     4     5   ar
    22     5     6   ar
    23     6     7   ar
    24     7     8   ar
    25     8     9   ar
    26     9     1   ar
    27    15    10    1
    28     9     4   ar
    29    21    16    1
@<TRIPOS>MOLECULE
*****
 26 29 0 0 0
SMALL
GASTEIGER

@<TRIPOS>ATOM
      1 N         141.5275  139.5205  166.7626 N.ar    1  UNL1       -0.3123
      2 C         140.1214  139.6039  166.2470 C.ar    1  UNL1        0.1213
      3 N         139.2354  140.0226  167.3826 N.ar    1  UNL1       -0.2309
      4 C         140.0939  140.1981  168.6000 C.ar    1  UNL1        0.0983
      5 C         139.7688  140.6003  170.0080 C.ar    1  UNL1        0.0206
      6 C         140.8602  140.6922  171.0328 C.ar    1  UNL1        0.0016
      7 C         142.2769  140.3819  170.6496 C.ar    1  UNL1        0.0016
      8 C         142.6020  139.9797  169.2416 C.ar    1  UNL1        0.0188
      9 C         141.5106  139.8878  168.2168 C.ar    1  UNL1        0.0787
     10 C         139.6789  139.3185  164.8424 C.3     1  UNL1        0.0729
     11 C         139.2855  137.9258  164.4483 C.3     1  UNL1        0.0103
     12 C         138.8431  137.6405  163.0437 C.3     1  UNL1        0.0178
     13 C         138.7941  138.7479  162.0332 C.3     1  UNL1        0.0721
     14 N         139.1875  140.1407  162.4273 N.3     1  UNL1       -0.2734
     15 C         139.6300  140.4260  163.8319 C.3     1  UNL1        0.0795
     16 C         139.1385  141.2482  161.4168 C.3     1  UNL1        0.0625
     17 C         139.7508  142.5804  161.7339 C.3     1  UNL1        0.0481
     18 C         139.7018  143.6879  160.7235 C.3     1  UNL1        0.1435
     19 O         139.0406  143.4633  159.3959 O.3     1  UNL1       -0.3537
     20 C         138.4284  142.1311  159.0788 C.3     1  UNL1        0.1435
     21 C         138.4773  141.0236  160.0893 C.3     1  UNL1        0.0481
     22 C         142.7381  139.1373  165.9641 C.3     1  UNL1        0.1392
     23 C         143.3767  140.1353  165.0443 C.3     1  UNL1        0.1666
     24 O         142.8757  141.5486  165.0068 O.3     1  UNL1       -0.3517
     25 C         144.5189  143.5150  165.4347 C.3     1  UNL1        0.0346
     26 C         143.4595  142.5761  165.9306 C.3     1  UNL1        0.1423
@<TRIPOS>BOND
     1    25    26    1
     2    26    24    1
     3    24    23    1
     4    23    22    1
     5    22     1    1
     6     1     2   ar
     7    10     2    1
     8    10    11    1
     9    11    12    1
    10    12    13    1
    11    13    14    1
    12    14    16    1
    13    16    17    1
    14    17    18    1
    15    18    19    1
    16    19    20    1
    17    20    21    1
    18    14    15    1
    19     2     3   ar
    20     3     4   ar
    21     4     5   ar
    22     5     6   ar
    23     6     7   ar
    24     7     8   ar
    25     8     9   ar
    26     9     1   ar
    27    15    10    1
    28     9     4   ar
    29    21    16    1
@<TRIPOS>MOLECULE
*****
 26 29 0 0 0
SMALL
GASTEIGER

@<TRIPOS>ATOM
      1 N         140.8363  140.5213  163.0186 N.ar    1  UNL1       -0.3123
      2 C         140.5949  139.3441  163.9162 C.ar    1  UNL1        0.1213
      3 N         141.2006  138.1348  163.2676 N.ar    1  UNL1       -0.2309
      4 C         141.8164  138.5646  161.9691 C.ar    1  UNL1        0.0983
      5 C         142.5529  137.8035  160.9070 C.ar    1  UNL1        0.0206
      6 C         143.0644  138.5174  159.6910 C.ar    1  UNL1        0.0016
      7 C         142.8392  139.9924  159.5371 C.ar    1  UNL1        0.0016
      8 C         142.1027  140.7535  160.5992 C.ar    1  UNL1        0.0188
      9 C         141.5912  140.0396  161.8152 C.ar    1  UNL1        0.0787
     10 C         139.8744  139.3713  165.2315 C.3     1  UNL1        0.0729
     11 C         138.5896  138.6155  165.3987 C.3     1  UNL1        0.0103
     12 C         137.8690  138.6427  166.7140 C.3     1  UNL1        0.0178
     13 C         138.4332  139.4258  167.8622 C.3     1  UNL1        0.0721
     14 N         139.7180  140.1817  167.6950 N.3     1  UNL1       -0.2734
     15 C         140.4386  140.1544  166.3797 C.3     1  UNL1        0.0795
     16 C         140.2823  140.9649  168.8432 C.3     1  UNL1        0.0625
     17 C         140.6921  140.2601  170.1023 C.3     1  UNL1        0.0481
     18 C         141.2563  141.0432  171.2505 C.3     1  UNL1        0.1435
     19 O         141.4108  142.5312  171.1396 O.3     1  UNL1       -0.3537
     20 C         141.0010  143.2359  169.8805 C.3     1  UNL1        0.1435
     21 C         140.4368  142.4527  168.7323 C.3     1  UNL1        0.0481
     22 C         140.3996  141.9326  163.2786 C.3     1  UNL1        0.1392
     23 C         141.3479  142.9065  163.9126 C.3     1  UNL1        0.1666
     24 O         140.8516  144.2447  164.3738 O.3     1  UNL1       -0.3517
     25 C         138.5924  144.9026  165.4754 C.3     1  UNL1        0.0346
     26 C         139.3970  144.5890  164.2489 C.3     1  UNL1        0.1423
@<TRIPOS>BOND
     1    25    26    1
     2    26    24    1
     3    24    23    1
     4    23    22    1
     5    22     1    1
     6     1     2   ar
     7    10     2    1
     8    10    11    1
     9    11    12    1
    10    12    13    1
    11    13    14    1
    12    14    16    1
    13    16    17    1
    14    17    18    1
    15    18    19    1
    16    19    20    1
    17    20    21    1
    18    14    15    1
    19     2     3   ar
    20     3     4   ar
    21     4     5   ar
    22     5     6   ar
    23     6     7   ar
    24     7     8   ar
    25     8     9   ar
    26     9     1   ar
    27    15    10    1
    28     9     4   ar
    29    21    16    1
@<TRIPOS>MOLECULE
*****
 26 29 0 0 0
SMALL
GASTEIGER

@<TRIPOS>ATOM
      1 N         141.2550  140.4468  166.2113 N.ar    1  UNL1       -0.3123
      2 C         142.2779  141.5084  165.9346 C.ar    1  UNL1        0.1213
      3 N         142.2879  142.4565  167.0968 N.ar    1  UNL1       -0.2309
      4 C         141.2711  141.9810  168.0918 C.ar    1  UNL1        0.0983
      5 C         140.8440  142.5185  169.4255 C.ar    1  UNL1        0.0206
      6 C         139.7786  141.8138  170.2118 C.ar    1  UNL1        0.0016
      7 C         139.1403  140.5717  169.6645 C.ar    1  UNL1        0.0016
      8 C         139.5673  140.0342  168.3308 C.ar    1  UNL1        0.0188
      9 C         140.6327  140.7388  167.5445 C.ar    1  UNL1        0.0787
     10 C         143.1396  141.6048  164.7106 C.3     1  UNL1        0.0729
     11 C         144.4927  140.9577  164.6930 C.3     1  UNL1        0.0103
     12 C         145.3544  141.0542  163.4690 C.3     1  UNL1        0.0178
     13 C         144.8630  141.7978  162.2626 C.3     1  UNL1        0.0721
     14 N         143.5099  142.4449  162.2801 N.3     1  UNL1       -0.2734
     15 C         142.6482  142.3484  163.5041 C.3     1  UNL1        0.0795
     16 C         143.0184  143.1886  161.0736 C.3     1  UNL1        0.0625
     17 C         141.9476  144.2289  161.2186 C.3     1  UNL1        0.0481
     18 C         141.4561  144.9725  160.0122 C.3     1  UNL1        0.1435
     19 O         142.0355  144.6759  158.6608 O.3     1  UNL1       -0.3537
     20 C         143.1064  143.6356  158.5158 C.3     1  UNL1        0.1435
     21 C         143.5978  142.8919  159.7223 C.3     1  UNL1        0.0481
     22 C         140.9141  139.2952  165.3125 C.3     1  UNL1        0.1392
     23 C         141.9443  138.2469  165.0131 C.3     1  UNL1        0.1666
     24 O         142.0841  137.7090  163.6199 O.3     1  UNL1       -0.3517
     25 C         143.8050  138.1134  161.7159 C.3     1  UNL1        0.0346
     26 C         142.6359  138.5809  162.5311 C.3     1  UNL1        0.1423
@<TRIPOS>BOND
     1    25    26    1
     2    26    24    1
     3    24    23    1
     4    23    22    1
     5    22     1    1
     6     1     2   ar
     7    10     2    1
     8    10    11    1
     9    11    12    1
    10    12    13    1
    11    13    14    1
    12    14    16    1
    13    16    17    1
    14    17    18    1
    15    18    19    1
    16    19    20    1
    17    20    21    1
    18    14    15    1
    19     2     3   ar
    20     3     4   ar
    21     4     5   ar
    22     5     6   ar
    23     6     7   ar
    24     7     8   ar
    25     8     9   ar
    26     9     1   ar
    27    15    10    1
    28     9     4   ar
    29    21    16    1
@<TRIPOS>MOLECULE
*****
 26 29 0 0 0
SMALL
GASTEIGER

@<TRIPOS>ATOM
      1 N         140.2413  141.7202  166.5095 N.ar    1  UNL1       -0.3123
      2 C         139.9898  140.2434  166.4333 C.ar    1  UNL1        0.1213
      3 N         139.8248  139.7286  167.8325 N.ar    1  UNL1       -0.2309
      4 C         139.9742  140.8872  168.7734 C.ar    1  UNL1        0.0983
      5 C         139.9092  140.9805  170.2691 C.ar    1  UNL1        0.0206
      6 C         140.1016  142.3046  170.9470 C.ar    1  UNL1        0.0016
      7 C         140.3590  143.5355  170.1293 C.ar    1  UNL1        0.0016
      8 C         140.4240  143.4422  168.6337 C.ar    1  UNL1        0.0188
      9 C         140.2317  142.1181  167.9557 C.ar    1  UNL1        0.0787
     10 C         139.9162  139.4251  165.1784 C.3     1  UNL1        0.0729
     11 C         138.7738  138.4763  164.9675 C.3     1  UNL1        0.0103
     12 C         138.7002  137.6580  163.7126 C.3     1  UNL1        0.0178
     13 C         139.7692  137.7885  162.6684 C.3     1  UNL1        0.0721
     14 N         140.9116  138.7372  162.8792 N.3     1  UNL1       -0.2734
     15 C         140.9852  139.5556  164.1342 C.3     1  UNL1        0.0795
     16 C         141.9807  138.8678  161.8350 C.3     1  UNL1        0.0625
     17 C         141.8648  138.1120  160.5445 C.3     1  UNL1        0.0481
     18 C         142.9337  138.2425  159.5004 C.3     1  UNL1        0.1435
     19 O         144.1186  139.1288  159.7467 O.3     1  UNL1       -0.3537
     20 C         144.2345  139.8845  161.0372 C.3     1  UNL1        0.1435
     21 C         143.1655  139.7540  162.0814 C.3     1  UNL1        0.0481
     22 C         140.4633  142.6380  165.3440 C.3     1  UNL1        0.1392
     23 C         139.2901  143.1923  164.5916 C.3     1  UNL1        0.1666
     24 O         139.1994  143.0125  163.1052 O.3     1  UNL1       -0.3517
     25 C         137.3550  141.1984  162.8664 C.3     1  UNL1        0.0346
     26 C         137.9205  142.5341  162.4843 C.3     1  UNL1        0.1423
@<TRIPOS>BOND
     1    25    26    1
     2    26    24    1
     3    24    23    1
     4    23    22    1
     5    22     1    1
     6     1     2   ar
     7    10     2    1
     8    10    11    1
     9    11    12    1
    10    12    13    1
    11    13    14    1
    12    14    16    1
    13    16    17    1
    14    17    18    1
    15    18    19    1
    16    19    20    1
    17    20    21    1
    18    14    15    1
    19     2     3   ar
    20     3     4   ar
    21     4     5   ar
    22     5     6   ar
    23     6     7   ar
    24     7     8   ar
    25     8     9   ar
    26     9     1   ar
    27    15    10    1
    28     9     4   ar
    29    21    16    1
