@<TRIPOS>MOLECULE
*****
 37 41 0 0 0
SMALL
GASTEIGER

@<TRIPOS>ATOM
      1 C         138.4836  143.1657  161.1195 C.ar    1  UNL1        0.1981
      2 N         138.4993  142.7100  159.6905 N.ar    1  UNL1       -0.2138
      3 C         139.5054  143.5404  158.9501 C.ar    1  UNL1        0.0999
      4 C         139.9479  143.5394  157.5169 C.ar    1  UNL1        0.0207
      5 C         140.9965  144.5075  157.0551 C.ar    1  UNL1        0.0016
      6 C         141.6026  145.4764  158.0265 C.ar    1  UNL1        0.0016
      7 C         141.1602  145.4774  159.4597 C.ar    1  UNL1        0.0188
      8 C         140.1115  144.5094  159.9215 C.ar    1  UNL1        0.0801
      9 N         139.4800  144.2777  161.2623 N.ar    1  UNL1       -0.2956
     10 N         137.6227  142.6073  162.2136 N.pl3   1  UNL1       -0.3058
     11 H         136.8197  143.0961  162.5061 H       1  UNL1        0.1495
     12 N         138.7102  138.6981  164.1591 N.3     1  UNL1       -0.2723
     13 C         138.5375  138.7727  162.6710 C.3     1  UNL1        0.0738
     14 C         138.1750  140.0758  162.0224 C.3     1  UNL1        0.0369
     15 C         137.9852  141.3042  162.8621 C.3     1  UNL1        0.0745
     16 C         138.1580  141.2295  164.3503 C.3     1  UNL1        0.0369
     17 C         138.5204  139.9265  164.9988 C.3     1  UNL1        0.0738
     18 C         139.0727  137.3949  164.8077 C.3     1  UNL1        0.0768
     19 C         140.4775  136.8771  164.7167 C.3     1  UNL1        0.0437
     20 C         143.8746  139.7170  163.9135 C.ar    1  UNL1        0.0684
     21 C         143.2087  139.0030  162.7747 C.ar    1  UNL1        0.0100
     22 C         142.0763  138.0564  163.0424 C.ar    1  UNL1       -0.0035
     23 C         141.6099  137.8237  164.4490 C.ar    1  UNL1       -0.0207
     24 C         142.2758  138.5377  165.5878 C.ar    1  UNL1       -0.0035
     25 C         143.4081  139.4843  165.3200 C.ar    1  UNL1        0.0100
     26 N         146.1393  141.6102  163.3780 N.1     1  UNL1       -0.1908
     27 C         145.0069  140.6636  163.6458 C.1     1  UNL1        0.1004
     28 C         139.7905  145.0268  162.5242 C.3     1  UNL1        0.1354
     29 C         140.1502  144.2768  163.7724 C.ar    1  UNL1        0.0005
     30 C         141.2846  143.2954  163.7572 C.ar    1  UNL1       -0.0024
     31 C         141.6443  142.5454  165.0054 C.ar    1  UNL1        0.0009
     32 C         140.8696  142.7766  166.2689 C.ar    1  UNL1        0.0140
     33 C         139.7353  143.7579  166.2841 C.ar    1  UNL1        0.0009
     34 C         139.3755  144.5080  165.0359 C.ar    1  UNL1       -0.0024
     35 C         141.2294  142.0266  167.5171 C.2     1  UNL1        0.0729
     36 O         140.1493  141.4420  168.3784 O.co2   1  UNL1       -0.5446
     37 O         142.6692  141.8611  167.9040 O.co2   1  UNL1       -0.5446
@<TRIPOS>UNITY_ATOM_ATTR
36 1
charge -1
@<TRIPOS>BOND
     1    26    27    3
     2    27    20    1
     3    20    21   ar
     4    21    22   ar
     5    22    23   ar
     6    23    19    1
     7    19    18    1
     8    18    12    1
     9    12    13    1
    10    13    14    1
    11    14    15    1
    12    15    10    1
    13    10     1    1
    14     1     2   ar
    15     2     3   ar
    16     3     4   ar
    17     4     5   ar
    18     5     6   ar
    19     6     7   ar
    20     7     8   ar
    21     8     9   ar
    22     9    28    1
    23    28    29    1
    24    29    30   ar
    25    30    31   ar
    26    31    32   ar
    27    32    35    1
    28    35    36   ar
    29    35    37   ar
    30    32    33   ar
    31    33    34   ar
    32    15    16    1
    33    16    17    1
    34    23    24   ar
    35    24    25   ar
    36    25    20   ar
    37    17    12    1
    38     9     1   ar
    39    34    29   ar
    40     8     3   ar
    41    10    11    1
@<TRIPOS>MOLECULE
*****
 37 41 0 0 0
SMALL
GASTEIGER

@<TRIPOS>ATOM
      1 C         143.6703  139.1126  160.5680 C.ar    1  UNL1        0.1981
      2 N         143.6824  138.7996  159.1011 N.ar    1  UNL1       -0.2138
      3 C         143.7439  140.0970  158.3507 C.ar    1  UNL1        0.0999
      4 C         143.7797  140.4072  156.8837 C.ar    1  UNL1        0.0207
      5 C         143.8414  141.8323  156.4198 C.ar    1  UNL1        0.0016
      6 C         143.8673  142.9472  157.4230 C.ar    1  UNL1        0.0016
      7 C         143.8315  142.6369  158.8901 C.ar    1  UNL1        0.0188
      8 C         143.7698  141.2119  159.3540 C.ar    1  UNL1        0.0801
      9 N         143.7243  140.6034  160.7243 N.ar    1  UNL1       -0.2956
     10 N         143.6140  138.1107  161.6829 N.pl3   1  UNL1       -0.3058
     11 H         144.3493  137.4674  161.8042 H       1  UNL1        0.1495
     12 N         140.0841  138.0453  164.4732 N.3     1  UNL1       -0.2723
     13 C         141.4536  138.3509  165.0033 C.3     1  UNL1        0.0738
     14 C         142.6303  138.3727  164.0732 C.3     1  UNL1        0.0369
     15 C         142.4374  138.0889  162.6130 C.3     1  UNL1        0.0745
     16 C         141.0678  137.7832  162.0829 C.3     1  UNL1        0.0369
     17 C         139.8912  137.7614  163.0130 C.3     1  UNL1        0.0738
     18 C         138.9075  138.0235  165.4033 C.3     1  UNL1        0.0768
     19 C         138.3215  139.3111  165.9018 C.3     1  UNL1        0.0437
     20 C         140.7210  141.9684  168.6279 C.ar    1  UNL1        0.0684
     21 C         140.0640  140.7342  169.1712 C.ar    1  UNL1        0.0100
     22 C         139.2642  139.8485  168.2625 C.ar    1  UNL1       -0.0035
     23 C         139.1214  140.1969  166.8105 C.ar    1  UNL1       -0.0207
     24 C         139.7784  141.4310  166.2672 C.ar    1  UNL1       -0.0035
     25 C         140.5783  142.3168  167.1760 C.ar    1  UNL1        0.0100
     26 N         142.3207  143.7399  170.4453 N.1     1  UNL1       -0.1908
     27 C         141.5208  142.8541  169.5366 C.1     1  UNL1        0.1004
     28 C         143.7315  141.3542  162.0229 C.3     1  UNL1        0.1354
     29 C         142.5204  142.1306  162.4472 C.ar    1  UNL1        0.0005
     30 C         141.1504  141.5556  162.2402 C.ar    1  UNL1       -0.0024
     31 C         139.9391  142.3320  162.6645 C.ar    1  UNL1        0.0009
     32 C         140.0978  143.6835  163.2957 C.ar    1  UNL1        0.0140
     33 C         141.4677  144.2585  163.5026 C.ar    1  UNL1        0.0009
     34 C         142.6789  143.4820  163.0784 C.ar    1  UNL1       -0.0024
     35 C         138.8865  144.4599  163.7200 C.2     1  UNL1        0.0729
     36 O         137.8355  144.8199  162.7121 O.co2   1  UNL1       -0.5446
     37 O         138.7263  144.8763  165.1522 O.co2   1  UNL1       -0.5446
@<TRIPOS>UNITY_ATOM_ATTR
36 1
charge -1
@<TRIPOS>BOND
     1    26    27    3
     2    27    20    1
     3    20    21   ar
     4    21    22   ar
     5    22    23   ar
     6    23    19    1
     7    19    18    1
     8    18    12    1
     9    12    13    1
    10    13    14    1
    11    14    15    1
    12    15    10    1
    13    10     1    1
    14     1     2   ar
    15     2     3   ar
    16     3     4   ar
    17     4     5   ar
    18     5     6   ar
    19     6     7   ar
    20     7     8   ar
    21     8     9   ar
    22     9    28    1
    23    28    29    1
    24    29    30   ar
    25    30    31   ar
    26    31    32   ar
    27    32    35    1
    28    35    36   ar
    29    35    37   ar
    30    32    33   ar
    31    33    34   ar
    32    15    16    1
    33    16    17    1
    34    23    24   ar
    35    24    25   ar
    36    25    20   ar
    37    17    12    1
    38     9     1   ar
    39    34    29   ar
    40     8     3   ar
    41    10    11    1
@<TRIPOS>MOLECULE
*****
 37 41 0 0 0
SMALL
GASTEIGER

@<TRIPOS>ATOM
      1 C         142.9788  138.9177  158.5527 C.ar    1  UNL1        0.1981
      2 N         143.3000  137.8281  157.5731 N.ar    1  UNL1       -0.2138
      3 C         142.0317  137.4514  156.8663 C.ar    1  UNL1        0.0999
      4 C         141.7403  136.4389  155.7987 C.ar    1  UNL1        0.0207
      5 C         140.3438  136.2832  155.2738 C.ar    1  UNL1        0.0016
      6 C         139.2387  137.1400  155.8166 C.ar    1  UNL1        0.0016
      7 C         139.5301  138.1524  156.8843 C.ar    1  UNL1        0.0188
      8 C         140.9266  138.3082  157.4091 C.ar    1  UNL1        0.0801
      9 N         141.5119  139.2144  158.4513 N.ar    1  UNL1       -0.2956
     10 N         143.9533  139.5922  159.4721 N.pl3   1  UNL1       -0.3058
     11 H         144.6729  140.1525  159.1014 H       1  UNL1        0.1495
     12 N         143.5877  139.0543  163.9249 N.3     1  UNL1       -0.2723
     13 C         142.9983  138.0352  162.9955 C.3     1  UNL1        0.0738
     14 C         143.1201  138.2145  161.5111 C.3     1  UNL1        0.0369
     15 C         143.8314  139.4129  160.9563 C.3     1  UNL1        0.0745
     16 C         144.4209  140.4320  161.8859 C.3     1  UNL1        0.0369
     17 C         144.2991  140.2527  163.3701 C.3     1  UNL1        0.0738
     18 C         143.4659  138.8751  165.4092 C.3     1  UNL1        0.0768
     19 C         142.1144  138.9010  166.0593 C.3     1  UNL1        0.0437
     20 C         140.9070  142.4131  168.6004 C.ar    1  UNL1        0.0684
     21 C         140.0731  141.1662  168.5993 C.ar    1  UNL1        0.0100
     22 C         140.4755  139.9956  167.7522 C.ar    1  UNL1       -0.0035
     23 C         141.7120  140.0716  166.9063 C.ar    1  UNL1       -0.0207
     24 C         142.5459  141.3185  166.9075 C.ar    1  UNL1       -0.0035
     25 C         142.1434  142.4892  167.7546 C.ar    1  UNL1        0.0100
     26 N         140.1021  144.7545  170.2944 N.1     1  UNL1       -0.1908
     27 C         140.5045  143.5838  169.4474 C.1     1  UNL1        0.1004
     28 C         140.7620  140.2376  159.2517 C.3     1  UNL1        0.1354
     29 C         140.2345  139.8871  160.6113 C.ar    1  UNL1        0.0005
     30 C         139.4769  138.6086  160.8152 C.ar    1  UNL1       -0.0024
     31 C         138.9494  138.2579  162.1749 C.ar    1  UNL1        0.0009
     32 C         139.1795  139.1859  163.3308 C.ar    1  UNL1        0.0140
     33 C         139.9370  140.4644  163.1269 C.ar    1  UNL1        0.0009
     34 C         140.4646  140.8150  161.7673 C.ar    1  UNL1       -0.0024
     35 C         138.6520  138.8353  164.6905 C.2     1  UNL1        0.0729
     36 O         137.9202  139.8649  165.4995 O.co2   1  UNL1       -0.5446
     37 O         138.8563  137.4550  165.2413 O.co2   1  UNL1       -0.5446
@<TRIPOS>UNITY_ATOM_ATTR
36 1
charge -1
@<TRIPOS>BOND
     1    26    27    3
     2    27    20    1
     3    20    21   ar
     4    21    22   ar
     5    22    23   ar
     6    23    19    1
     7    19    18    1
     8    18    12    1
     9    12    13    1
    10    13    14    1
    11    14    15    1
    12    15    10    1
    13    10     1    1
    14     1     2   ar
    15     2     3   ar
    16     3     4   ar
    17     4     5   ar
    18     5     6   ar
    19     6     7   ar
    20     7     8   ar
    21     8     9   ar
    22     9    28    1
    23    28    29    1
    24    29    30   ar
    25    30    31   ar
    26    31    32   ar
    27    32    35    1
    28    35    36   ar
    29    35    37   ar
    30    32    33   ar
    31    33    34   ar
    32    15    16    1
    33    16    17    1
    34    23    24   ar
    35    24    25   ar
    36    25    20   ar
    37    17    12    1
    38     9     1   ar
    39    34    29   ar
    40     8     3   ar
    41    10    11    1
@<TRIPOS>MOLECULE
*****
 37 41 0 0 0
SMALL
GASTEIGER

@<TRIPOS>ATOM
      1 C         139.3738  140.6450  166.6796 C.ar    1  UNL1        0.1981
      2 N         140.0246  139.5350  167.4505 N.ar    1  UNL1       -0.2138
      3 C         141.1244  140.1291  168.2795 C.ar    1  UNL1        0.0999
      4 C         142.1033  139.5159  169.2365 C.ar    1  UNL1        0.0207
      5 C         143.1111  140.3799  169.9348 C.ar    1  UNL1        0.0016
      6 C         143.1401  141.8571  169.6762 C.ar    1  UNL1        0.0016
      7 C         142.1613  142.4704  168.7193 C.ar    1  UNL1        0.0188
      8 C         141.1534  141.6064  168.0210 C.ar    1  UNL1        0.0801
      9 N         140.0715  141.9252  167.0321 N.ar    1  UNL1       -0.2956
     10 N         138.2268  140.5002  165.7239 N.pl3   1  UNL1       -0.3058
     11 H         137.3170  140.7501  166.0053 H       1  UNL1        0.1495
     12 N         138.9438  138.9237  161.5705 N.3     1  UNL1       -0.2723
     13 C         139.0385  138.0012  162.7495 C.3     1  UNL1        0.0738
     14 C         138.7995  138.5267  164.1341 C.3     1  UNL1        0.0369
     15 C         138.4658  139.9747  164.3395 C.3     1  UNL1        0.0745
     16 C         138.3711  140.8971  163.1603 C.3     1  UNL1        0.0369
     17 C         138.6102  140.3716  161.7759 C.3     1  UNL1        0.0738
     18 C         139.1829  138.3982  160.1860 C.3     1  UNL1        0.0768
     19 C         140.5504  138.4864  159.5760 C.3     1  UNL1        0.0437
     20 C         143.9169  140.4007  161.8677 C.ar    1  UNL1        0.0684
     21 C         143.5680  138.9619  162.1093 C.ar    1  UNL1        0.0100
     22 C         142.4459  138.3238  161.3454 C.ar    1  UNL1       -0.0035
     23 C         141.6725  139.1245  160.3399 C.ar    1  UNL1       -0.0207
     24 C         142.0214  140.5632  160.0983 C.ar    1  UNL1       -0.0035
     25 C         143.1436  141.2013  160.8622 C.ar    1  UNL1        0.0100
     26 N         146.1613  141.6769  163.3954 N.1     1  UNL1       -0.1908
     27 C         145.0391  141.0388  162.6315 C.1     1  UNL1        0.1004
     28 C         139.7446  143.2854  166.4909 C.3     1  UNL1        0.1354
     29 C         140.0279  143.6088  165.0539 C.ar    1  UNL1        0.0005
     30 C         141.2329  143.0253  164.3772 C.ar    1  UNL1       -0.0024
     31 C         141.5162  143.3487  162.9402 C.ar    1  UNL1        0.0009
     32 C         140.5946  144.2556  162.1797 C.ar    1  UNL1        0.0140
     33 C         139.3898  144.8390  162.8563 C.ar    1  UNL1        0.0009
     34 C         139.1064  144.5157  164.2934 C.ar    1  UNL1       -0.0024
     35 C         140.8780  144.5790  160.7427 C.2     1  UNL1        0.0729
     36 O         139.7491  144.9069  159.8110 O.co2   1  UNL1       -0.5446
     37 O         142.2904  144.5745  160.2373 O.co2   1  UNL1       -0.5446
@<TRIPOS>UNITY_ATOM_ATTR
36 1
charge -1
@<TRIPOS>BOND
     1    26    27    3
     2    27    20    1
     3    20    21   ar
     4    21    22   ar
     5    22    23   ar
     6    23    19    1
     7    19    18    1
     8    18    12    1
     9    12    13    1
    10    13    14    1
    11    14    15    1
    12    15    10    1
    13    10     1    1
    14     1     2   ar
    15     2     3   ar
    16     3     4   ar
    17     4     5   ar
    18     5     6   ar
    19     6     7   ar
    20     7     8   ar
    21     8     9   ar
    22     9    28    1
    23    28    29    1
    24    29    30   ar
    25    30    31   ar
    26    31    32   ar
    27    32    35    1
    28    35    36   ar
    29    35    37   ar
    30    32    33   ar
    31    33    34   ar
    32    15    16    1
    33    16    17    1
    34    23    24   ar
    35    24    25   ar
    36    25    20   ar
    37    17    12    1
    38     9     1   ar
    39    34    29   ar
    40     8     3   ar
    41    10    11    1
@<TRIPOS>MOLECULE
*****
 37 41 0 0 0
SMALL
GASTEIGER

@<TRIPOS>ATOM
      1 C         142.5549  139.8380  167.5363 C.ar    1  UNL1        0.1981
      2 N         141.5011  139.4075  168.5131 N.ar    1  UNL1       -0.2138
      3 C         140.9290  140.6390  169.1505 C.ar    1  UNL1        0.0999
      4 C         139.8610  140.8292  170.1864 C.ar    1  UNL1        0.0207
      5 C         139.4932  142.2111  170.6393 C.ar    1  UNL1        0.0016
      6 C         140.1935  143.4026  170.0565 C.ar    1  UNL1        0.0016
      7 C         141.2615  143.2124  169.0206 C.ar    1  UNL1        0.0188
      8 C         141.6293  141.8306  168.5677 C.ar    1  UNL1        0.0801
      9 N         142.6341  141.3355  167.5700 N.ar    1  UNL1       -0.2956
     10 N         143.3839  138.9303  166.6767 N.pl3   1  UNL1       -0.3058
     11 H         144.1922  138.5061  167.0453 H       1  UNL1        0.1495
     12 N         142.1758  138.1461  162.4134 N.3     1  UNL1       -0.2723
     13 C         143.2701  139.1268  162.7146 C.3     1  UNL1        0.0738
     14 C         143.6728  139.3882  164.1357 C.3     1  UNL1        0.0369
     15 C         142.9812  138.6689  165.2556 C.3     1  UNL1        0.0745
     16 C         141.8869  137.6881  164.9544 C.3     1  UNL1        0.0369
     17 C         141.4843  137.4267  163.5334 C.3     1  UNL1        0.0738
     18 C         141.7731  137.8846  160.9923 C.3     1  UNL1        0.0768
     19 C         140.4081  138.2824  160.5143 C.3     1  UNL1        0.0437
     20 C         138.5615  142.1334  161.9318 C.ar    1  UNL1        0.0684
     21 C         138.0839  140.8240  162.4861 C.ar    1  UNL1        0.0100
     22 C         138.6995  139.5403  162.0136 C.ar    1  UNL1       -0.0035
     23 C         139.7926  139.5660  160.9868 C.ar    1  UNL1       -0.0207
     24 C         140.2702  140.8755  160.4324 C.ar    1  UNL1       -0.0035
     25 C         139.6546  142.1592  160.9050 C.ar    1  UNL1        0.0100
     26 N         137.3305  144.7008  162.8768 N.1     1  UNL1       -0.1908
     27 C         137.9460  143.4171  162.4043 C.1     1  UNL1        0.1004
     28 C         143.5563  142.1883  166.7501 C.3     1  UNL1        0.1354
     29 C         143.0334  142.9172  165.5480 C.ar    1  UNL1        0.0005
     30 C         141.5918  142.7806  165.1564 C.ar    1  UNL1       -0.0024
     31 C         141.0688  143.5095  163.9542 C.ar    1  UNL1        0.0009
     32 C         141.9874  144.3750  163.1436 C.ar    1  UNL1        0.0140
     33 C         143.4289  144.5116  163.5351 C.ar    1  UNL1        0.0009
     34 C         143.9519  143.7827  164.7373 C.ar    1  UNL1       -0.0024
     35 C         141.4644  145.1039  161.9414 C.2     1  UNL1        0.0729
     36 O         140.3735  146.1216  162.0972 O.co2   1  UNL1       -0.5446
     37 O         142.0324  144.8151  160.5834 O.co2   1  UNL1       -0.5446
@<TRIPOS>UNITY_ATOM_ATTR
36 1
charge -1
@<TRIPOS>BOND
     1    26    27    3
     2    27    20    1
     3    20    21   ar
     4    21    22   ar
     5    22    23   ar
     6    23    19    1
     7    19    18    1
     8    18    12    1
     9    12    13    1
    10    13    14    1
    11    14    15    1
    12    15    10    1
    13    10     1    1
    14     1     2   ar
    15     2     3   ar
    16     3     4   ar
    17     4     5   ar
    18     5     6   ar
    19     6     7   ar
    20     7     8   ar
    21     8     9   ar
    22     9    28    1
    23    28    29    1
    24    29    30   ar
    25    30    31   ar
    26    31    32   ar
    27    32    35    1
    28    35    36   ar
    29    35    37   ar
    30    32    33   ar
    31    33    34   ar
    32    15    16    1
    33    16    17    1
    34    23    24   ar
    35    24    25   ar
    36    25    20   ar
    37    17    12    1
    38     9     1   ar
    39    34    29   ar
    40     8     3   ar
    41    10    11    1
@<TRIPOS>MOLECULE
*****
 37 41 0 0 0
SMALL
GASTEIGER

@<TRIPOS>ATOM
      1 C         139.4387  139.5277  166.6997 C.ar    1  UNL1        0.1981
      2 N         138.8511  139.6269  168.0762 N.ar    1  UNL1       -0.2138
      3 C         139.5524  140.7375  168.8006 C.ar    1  UNL1        0.0999
      4 C         139.3932  141.2900  170.1860 C.ar    1  UNL1        0.0207
      5 C         140.2551  142.4296  170.6426 C.ar    1  UNL1        0.0016
      6 C         141.2761  143.0167  169.7138 C.ar    1  UNL1        0.0016
      7 C         141.4353  142.4642  168.3284 C.ar    1  UNL1        0.0188
      8 C         140.5735  141.3246  167.8718 C.ar    1  UNL1        0.0801
      9 N         140.5032  140.5769  166.5734 N.ar    1  UNL1       -0.2956
     10 N         139.0330  138.5507  165.6362 N.pl3   1  UNL1       -0.3058
     11 H         138.1715  138.0791  165.7038 H       1  UNL1        0.1495
     12 N         141.7539  137.7756  162.1368 N.3     1  UNL1       -0.2723
     13 C         140.3415  138.2235  161.9038 C.3     1  UNL1        0.0738
     14 C         139.4344  138.4819  163.0703 C.3     1  UNL1        0.0369
     15 C         139.9399  138.2923  164.4697 C.3     1  UNL1        0.0745
     16 C         141.3524  137.8443  164.7027 C.3     1  UNL1        0.0369
     17 C         142.2594  137.5859  163.5363 C.3     1  UNL1        0.0738
     18 C         142.6609  137.5172  160.9703 C.3     1  UNL1        0.0768
     19 C         143.9184  138.3182  160.8062 C.3     1  UNL1        0.0437
     20 C         144.0347  142.6188  162.1256 C.ar    1  UNL1        0.0684
     21 C         144.5131  141.5378  163.0490 C.ar    1  UNL1        0.0100
     22 C         144.4744  140.1043  162.6092 C.ar    1  UNL1       -0.0035
     23 C         143.9571  139.7517  161.2460 C.ar    1  UNL1       -0.0207
     24 C         143.4787  140.8327  160.3226 C.ar    1  UNL1       -0.0035
     25 C         143.5175  142.2663  160.7625 C.ar    1  UNL1        0.0100
     26 N         144.1123  145.4860  163.0052 N.1     1  UNL1       -0.1908
     27 C         144.0735  144.0524  162.5654 C.1     1  UNL1        0.1004
     28 C         141.3489  140.8334  165.3614 C.3     1  UNL1        0.1354
     29 C         140.9940  141.9467  164.4210 C.ar    1  UNL1        0.0005
     30 C         140.5899  141.6366  163.0101 C.ar    1  UNL1       -0.0024
     31 C         140.2349  142.7499  162.0696 C.ar    1  UNL1        0.0009
     32 C         140.2840  144.1734  162.5400 C.ar    1  UNL1        0.0140
     33 C         140.6880  144.4835  163.9509 C.ar    1  UNL1        0.0009
     34 C         141.0430  143.3702  164.8914 C.ar    1  UNL1       -0.0024
     35 C         139.9290  145.2867  161.5996 C.2     1  UNL1        0.0729
     36 O         139.9520  146.7083  162.0775 O.co2   1  UNL1       -0.5446
     37 O         139.5509  144.9783  160.1810 O.co2   1  UNL1       -0.5446
@<TRIPOS>UNITY_ATOM_ATTR
36 1
charge -1
@<TRIPOS>BOND
     1    26    27    3
     2    27    20    1
     3    20    21   ar
     4    21    22   ar
     5    22    23   ar
     6    23    19    1
     7    19    18    1
     8    18    12    1
     9    12    13    1
    10    13    14    1
    11    14    15    1
    12    15    10    1
    13    10     1    1
    14     1     2   ar
    15     2     3   ar
    16     3     4   ar
    17     4     5   ar
    18     5     6   ar
    19     6     7   ar
    20     7     8   ar
    21     8     9   ar
    22     9    28    1
    23    28    29    1
    24    29    30   ar
    25    30    31   ar
    26    31    32   ar
    27    32    35    1
    28    35    36   ar
    29    35    37   ar
    30    32    33   ar
    31    33    34   ar
    32    15    16    1
    33    16    17    1
    34    23    24   ar
    35    24    25   ar
    36    25    20   ar
    37    17    12    1
    38     9     1   ar
    39    34    29   ar
    40     8     3   ar
    41    10    11    1
@<TRIPOS>MOLECULE
*****
 37 41 0 0 0
SMALL
GASTEIGER

@<TRIPOS>ATOM
      1 C         142.7110  139.2044  166.7309 C.ar    1  UNL1        0.1981
      2 N         143.1310  139.6268  168.1076 N.ar    1  UNL1       -0.2138
      3 C         141.8953  139.9794  168.8814 C.ar    1  UNL1        0.0999
      4 C         141.6950  140.4603  170.2880 C.ar    1  UNL1        0.0207
      5 C         140.3110  140.7366  170.7962 C.ar    1  UNL1        0.0016
      6 C         139.1274  140.5321  169.8978 C.ar    1  UNL1        0.0016
      7 C         139.3277  140.0512  168.4912 C.ar    1  UNL1        0.0188
      8 C         140.7116  139.7749  167.9830 C.ar    1  UNL1        0.0801
      9 N         141.2158  139.2959  166.6539 N.ar    1  UNL1       -0.2956
     10 N         143.6257  138.7672  165.6254 N.pl3   1  UNL1       -0.3058
     11 H         144.0379  137.8735  165.6519 H       1  UNL1        0.1495
     12 N         144.4858  141.5405  162.1875 N.3     1  UNL1       -0.2723
     13 C         144.2609  140.0793  161.9342 C.3     1  UNL1        0.0738
     14 C         143.9742  139.1548  163.0801 C.3     1  UNL1        0.0369
     15 C         143.9124  139.6916  164.4794 C.3     1  UNL1        0.0745
     16 C         144.1374  141.1529  164.7327 C.3     1  UNL1        0.0369
     17 C         144.4241  142.0773  163.5868 C.3     1  UNL1        0.0738
     18 C         144.7725  142.4650  161.0415 C.3     1  UNL1        0.0768
     19 C         144.1546  142.2092  159.6989 C.3     1  UNL1        0.0437
     20 C         141.2275  145.1582  157.9710 C.ar    1  UNL1        0.0684
     21 C         141.1765  144.8187  159.4312 C.ar    1  UNL1        0.0100
     22 C         142.1521  143.8357  160.0071 C.ar    1  UNL1       -0.0035
     23 C         143.1789  143.1922  159.1229 C.ar    1  UNL1       -0.0207
     24 C         143.2299  143.5317  157.6627 C.ar    1  UNL1       -0.0035
     25 C         142.2541  144.5147  157.0868 C.ar    1  UNL1        0.0100
     26 N         139.2760  147.1242  156.8191 N.1     1  UNL1       -0.1908
     27 C         140.2518  146.1411  157.3950 C.1     1  UNL1        0.1004
     28 C         140.3727  138.9662  165.4579 C.3     1  UNL1        0.1354
     29 C         139.8288  140.0676  164.5971 C.ar    1  UNL1        0.0005
     30 C         140.6473  140.6050  163.4606 C.ar    1  UNL1       -0.0024
     31 C         140.1034  141.7064  162.5997 C.ar    1  UNL1        0.0009
     32 C         138.7411  142.2705  162.8753 C.ar    1  UNL1        0.0140
     33 C         137.9227  141.7331  164.0118 C.ar    1  UNL1        0.0009
     34 C         138.4665  140.6317  164.8726 C.ar    1  UNL1       -0.0024
     35 C         138.1972  143.3719  162.0145 C.2     1  UNL1        0.0729
     36 O         138.1295  143.1967  160.5263 O.co2   1  UNL1       -0.5446
     37 O         137.7210  144.6486  162.6418 O.co2   1  UNL1       -0.5446
@<TRIPOS>UNITY_ATOM_ATTR
36 1
charge -1
@<TRIPOS>BOND
     1    26    27    3
     2    27    20    1
     3    20    21   ar
     4    21    22   ar
     5    22    23   ar
     6    23    19    1
     7    19    18    1
     8    18    12    1
     9    12    13    1
    10    13    14    1
    11    14    15    1
    12    15    10    1
    13    10     1    1
    14     1     2   ar
    15     2     3   ar
    16     3     4   ar
    17     4     5   ar
    18     5     6   ar
    19     6     7   ar
    20     7     8   ar
    21     8     9   ar
    22     9    28    1
    23    28    29    1
    24    29    30   ar
    25    30    31   ar
    26    31    32   ar
    27    32    35    1
    28    35    36   ar
    29    35    37   ar
    30    32    33   ar
    31    33    34   ar
    32    15    16    1
    33    16    17    1
    34    23    24   ar
    35    24    25   ar
    36    25    20   ar
    37    17    12    1
    38     9     1   ar
    39    34    29   ar
    40     8     3   ar
    41    10    11    1
@<TRIPOS>MOLECULE
*****
 37 41 0 0 0
SMALL
GASTEIGER

@<TRIPOS>ATOM
      1 C         139.6528  139.9450  162.8451 C.ar    1  UNL1        0.1981
      2 N         138.6578  140.8490  162.1799 N.ar    1  UNL1       -0.2138
      3 C         138.6081  142.1330  162.9538 C.ar    1  UNL1        0.0999
      4 C         137.8094  143.3885  162.7649 C.ar    1  UNL1        0.0207
      5 C         137.9750  144.5335  163.7196 C.ar    1  UNL1        0.0016
      6 C         138.9393  144.4230  164.8632 C.ar    1  UNL1        0.0016
      7 C         139.7380  143.1675  165.0521 C.ar    1  UNL1        0.0188
      8 C         139.5724  142.0225  164.0974 C.ar    1  UNL1        0.0801
      9 N         140.2181  140.6702  164.0302 N.ar    1  UNL1       -0.2956
     10 N         140.0183  138.5590  162.4030 N.pl3   1  UNL1       -0.3058
     11 H         139.8028  137.7870  162.9747 H       1  UNL1        0.1495
     12 N         142.1000  137.9297  158.4634 N.3     1  UNL1       -0.2723
     13 C         142.8467  137.7226  159.7477 C.3     1  UNL1        0.0738
     14 C         142.1528  137.9324  161.0610 C.3     1  UNL1        0.0369
     15 C         140.7122  138.3492  161.0898 C.3     1  UNL1        0.0745
     16 C         139.9655  138.5563  159.8054 C.3     1  UNL1        0.0369
     17 C         140.6594  138.3466  158.4923 C.3     1  UNL1        0.0738
     18 C         142.7939  137.7199  157.1501 C.3     1  UNL1        0.0768
     19 C         142.1837  136.8230  156.1143 C.3     1  UNL1        0.0437
     20 C         142.6830  132.3617  156.4251 C.ar    1  UNL1        0.0684
     21 C         143.5140  133.2708  157.2812 C.ar    1  UNL1        0.0100
     22 C         143.3475  134.7579  157.1776 C.ar    1  UNL1       -0.0035
     23 C         142.3501  135.3359  156.2179 C.ar    1  UNL1       -0.0207
     24 C         141.5191  134.4268  155.3618 C.ar    1  UNL1       -0.0035
     25 C         141.6856  132.9396  155.4654 C.ar    1  UNL1        0.0100
     26 N         143.0159  129.3874  156.6324 N.1     1  UNL1       -0.1908
     27 C         142.8494  130.8746  156.5288 C.1     1  UNL1        0.1004
     28 C         141.2482  140.1369  164.9812 C.3     1  UNL1        0.1354
     29 C         140.9744  140.1282  166.4559 C.ar    1  UNL1        0.0005
     30 C         139.5704  139.9614  166.9572 C.ar    1  UNL1       -0.0024
     31 C         139.2966  139.9528  168.4320 C.ar    1  UNL1        0.0009
     32 C         140.4267  140.1109  169.4055 C.ar    1  UNL1        0.0140
     33 C         141.8306  140.2777  168.9043 C.ar    1  UNL1        0.0009
     34 C         142.1045  140.2863  167.4296 C.ar    1  UNL1       -0.0024
     35 C         140.1528  140.1022  170.8803 C.2     1  UNL1        0.0729
     36 O         139.1926  139.1057  171.4590 O.co2   1  UNL1       -0.5446
     37 O         140.8392  141.0902  171.7764 O.co2   1  UNL1       -0.5446
@<TRIPOS>UNITY_ATOM_ATTR
36 1
charge -1
@<TRIPOS>BOND
     1    26    27    3
     2    27    20    1
     3    20    21   ar
     4    21    22   ar
     5    22    23   ar
     6    23    19    1
     7    19    18    1
     8    18    12    1
     9    12    13    1
    10    13    14    1
    11    14    15    1
    12    15    10    1
    13    10     1    1
    14     1     2   ar
    15     2     3   ar
    16     3     4   ar
    17     4     5   ar
    18     5     6   ar
    19     6     7   ar
    20     7     8   ar
    21     8     9   ar
    22     9    28    1
    23    28    29    1
    24    29    30   ar
    25    30    31   ar
    26    31    32   ar
    27    32    35    1
    28    35    36   ar
    29    35    37   ar
    30    32    33   ar
    31    33    34   ar
    32    15    16    1
    33    16    17    1
    34    23    24   ar
    35    24    25   ar
    36    25    20   ar
    37    17    12    1
    38     9     1   ar
    39    34    29   ar
    40     8     3   ar
    41    10    11    1
@<TRIPOS>MOLECULE
*****
 37 41 0 0 0
SMALL
GASTEIGER

@<TRIPOS>ATOM
      1 C         142.0972  139.5799  167.0288 C.ar    1  UNL1        0.1981
      2 N         143.2426  140.1378  167.8204 N.ar    1  UNL1       -0.2138
      3 C         142.7238  141.2773  168.6466 C.ar    1  UNL1        0.0999
      4 C         143.3970  142.2004  169.6184 C.ar    1  UNL1        0.0207
      5 C         142.6040  143.2699  170.3092 C.ar    1  UNL1        0.0016
      6 C         141.1378  143.4163  170.0282 C.ar    1  UNL1        0.0016
      7 C         140.4647  142.4931  169.0563 C.ar    1  UNL1        0.0188
      8 C         141.2576  141.4236  168.3655 C.ar    1  UNL1        0.0801
      9 N         140.8704  140.3746  167.3657 N.ar    1  UNL1       -0.2956
     10 N         142.1663  138.4294  166.0688 N.pl3   1  UNL1       -0.3058
     11 H         141.9833  137.5145  166.3830 H       1  UNL1        0.1495
     12 N         143.2104  139.1597  161.7530 N.3     1  UNL1       -0.2723
     13 C         144.2484  139.3519  162.8186 C.3     1  UNL1        0.0738
     14 C         143.9004  139.1084  164.2573 C.3     1  UNL1        0.0369
     15 C         142.5144  138.6729  164.6302 C.3     1  UNL1        0.0745
     16 C         141.4763  138.4807  163.5646 C.3     1  UNL1        0.0369
     17 C         141.8243  138.7242  162.1260 C.3     1  UNL1        0.0738
     18 C         143.5584  139.4031  160.3143 C.3     1  UNL1        0.0768
     19 C         143.9491  140.7781  159.8595 C.3     1  UNL1        0.0437
     20 C         141.3841  144.3164  160.9321 C.ar    1  UNL1        0.0684
     21 C         142.4991  143.8949  161.8426 C.ar    1  UNL1        0.0100
     22 C         143.3541  142.7155  161.4851 C.ar    1  UNL1       -0.0035
     23 C         143.0941  141.9575  160.2170 C.ar    1  UNL1       -0.0207
     24 C         141.9791  142.3790  159.3065 C.ar    1  UNL1       -0.0035
     25 C         141.1240  143.5585  159.6641 C.ar    1  UNL1        0.0100
     26 N         139.6740  146.6753  161.6473 N.1     1  UNL1       -0.1908
     27 C         140.5291  145.4958  161.2897 C.1     1  UNL1        0.1004
     28 C         139.4973  140.1583  166.8018 C.3     1  UNL1        0.1354
     29 C         139.1887  140.5809  165.3961 C.ar    1  UNL1        0.0005
     30 C         138.1337  139.8597  164.6106 C.ar    1  UNL1       -0.0024
     31 C         137.8250  140.2822  163.2049 C.ar    1  UNL1        0.0009
     32 C         138.5713  141.4261  162.5846 C.ar    1  UNL1        0.0140
     33 C         139.6262  142.1472  163.3700 C.ar    1  UNL1        0.0009
     34 C         139.9349  141.7247  164.7757 C.ar    1  UNL1       -0.0024
     35 C         138.2626  141.8486  161.1788 C.2     1  UNL1        0.0729
     36 O         138.3060  140.8430  160.0667 O.co2   1  UNL1       -0.5446
     37 O         137.9104  143.2769  160.8852 O.co2   1  UNL1       -0.5446
@<TRIPOS>UNITY_ATOM_ATTR
36 1
charge -1
@<TRIPOS>BOND
     1    26    27    3
     2    27    20    1
     3    20    21   ar
     4    21    22   ar
     5    22    23   ar
     6    23    19    1
     7    19    18    1
     8    18    12    1
     9    12    13    1
    10    13    14    1
    11    14    15    1
    12    15    10    1
    13    10     1    1
    14     1     2   ar
    15     2     3   ar
    16     3     4   ar
    17     4     5   ar
    18     5     6   ar
    19     6     7   ar
    20     7     8   ar
    21     8     9   ar
    22     9    28    1
    23    28    29    1
    24    29    30   ar
    25    30    31   ar
    26    31    32   ar
    27    32    35    1
    28    35    36   ar
    29    35    37   ar
    30    32    33   ar
    31    33    34   ar
    32    15    16    1
    33    16    17    1
    34    23    24   ar
    35    24    25   ar
    36    25    20   ar
    37    17    12    1
    38     9     1   ar
    39    34    29   ar
    40     8     3   ar
    41    10    11    1
