@<TRIPOS>MOLECULE
*****
 32 34 0 0 0
SMALL
GASTEIGER

@<TRIPOS>ATOM
      1 C         140.5237  140.1444  166.7336 C.ar    1  UNL1        0.0503
      2 C         140.9125  140.0987  165.2856 C.ar    1  UNL1        0.0166
      3 C         139.9606  139.5385  164.2708 C.ar    1  UNL1        0.0505
      4 C         138.6197  139.0241  164.7040 C.ar    1  UNL1        0.0170
      5 C         138.2309  139.0699  166.1520 C.ar    1  UNL1        0.0307
      6 C         139.1829  139.6301  167.1668 C.ar    1  UNL1        0.1401
      7 F         138.7941  139.6759  168.6148 F       1  UNL1       -0.2044
      8 C         142.2105  139.4546  167.3642 C.3     1  UNL1        0.0581
      9 C         141.4757  140.7046  167.7485 C.3     1  UNL1        0.1956
     10 C         140.4103  141.7600  167.7804 C.3     1  UNL1        0.0597
     11 C         140.5521  142.9415  168.6937 C.3     1  UNL1        0.0837
     12 C         141.7593  143.0675  169.5751 C.3     1  UNL1        0.3553
     13 F         142.7113  143.6276  170.5899 F       1  UNL1       -0.1914
     14 F         141.0245  144.3175  169.9594 F       1  UNL1       -0.1914
     15 C         142.8247  142.0121  169.5432 C.2     1  UNL1        0.3504
     16 N         144.0319  142.1382  170.4246 N.pl3   1  UNL1       -0.2456
     17 N         142.6829  140.8307  168.6299 N.2     1  UNL1       -0.0692
     18 H         144.1250  142.9136  171.0240 H       1  UNL1        0.2883
     19 H         144.7312  141.4455  170.4036 H       1  UNL1        0.2883
     20 N         140.3494  139.4927  162.8228 N.am    1  UNL1       -0.2791
     21 C         140.9036  138.2290  162.2347 C.2     1  UNL1        0.2688
     22 O         141.0690  137.0111  163.0946 O.2     1  UNL1       -0.2681
     23 H         140.2408  140.2920  162.2584 H       1  UNL1        0.1552
     24 C         141.2924  138.1831  160.7867 C.ar    1  UNL1        0.1541
     25 C         142.6856  137.7874  160.3964 C.ar    1  UNL1        0.1258
     26 N         143.0744  137.7416  158.9483 N.ar    1  UNL1       -0.2070
     27 C         142.0699  138.0914  157.8906 C.ar    1  UNL1        0.2469
     28 C         140.6767  138.4871  158.2810 C.ar    1  UNL1        0.1566
     29 N         140.2879  138.5329  159.7289 N.ar    1  UNL1       -0.2328
     30 O         142.4587  138.0455  156.4427 O.3     1  UNL1       -0.4265
     31 C         143.0407  136.7910  155.8617 C.3     1  UNL1        0.4044
     32 F         144.5272  136.6504  155.7180 F       1  UNL1       -0.1809
@<TRIPOS>BOND
     1     9     8    1
     2     9     1    1
     3     1     2   ar
     4     2     3   ar
     5     3    20    1
     6    20    21   am
     7    21    22    2
     8    21    24    1
     9    24    25   ar
    10    25    26   ar
    11    26    27   ar
    12    27    30    1
    13    30    31    1
    14    31    32    1
    15    27    28   ar
    16    28    29   ar
    17     3     4   ar
    18     4     5   ar
    19     5     6   ar
    20     6     7    1
    21     9    10    1
    22    10    11    1
    23    11    12    1
    24    12    13    1
    25    12    14    1
    26    12    15    1
    27    15    16    1
    28    15    17    2
    29    17     9    1
    30     6     1   ar
    31    29    24   ar
    32    20    23    1
    33    16    18    1
    34    16    19    1
@<TRIPOS>MOLECULE
*****
 32 34 0 0 0
SMALL
GASTEIGER

@<TRIPOS>ATOM
      1 C         140.2957  140.3912  167.0869 C.ar    1  UNL1        0.0503
      2 C         140.3251  140.5207  165.5928 C.ar    1  UNL1        0.0166
      3 C         139.2366  139.9044  164.7650 C.ar    1  UNL1        0.0505
      4 C         138.1187  139.1585  165.4313 C.ar    1  UNL1        0.0170
      5 C         138.0893  139.0289  166.9254 C.ar    1  UNL1        0.0307
      6 C         139.1778  139.6453  167.7532 C.ar    1  UNL1        0.1401
      7 F         139.1484  139.5157  169.2473 F       1  UNL1       -0.2044
      8 C         142.1264  139.8392  167.3367 C.3     1  UNL1        0.0581
      9 C         141.3842  141.0075  167.9147 C.3     1  UNL1        0.1956
     10 C         140.2639  141.9618  168.2053 C.3     1  UNL1        0.0597
     11 C         140.4899  143.1266  169.1229 C.3     1  UNL1        0.0837
     12 C         141.8362  143.3372  169.7500 C.3     1  UNL1        0.3553
     13 F         142.9247  143.9535  170.5778 F       1  UNL1       -0.1914
     14 F         141.0940  144.5055  170.3281 F       1  UNL1       -0.1914
     15 C         142.9565  142.3830  169.4595 C.2     1  UNL1        0.3504
     16 N         144.3028  142.5936  170.0865 N.pl3   1  UNL1       -0.2456
     17 N         142.7305  141.2181  168.5418 N.2     1  UNL1       -0.0692
     18 H         144.4511  143.3581  170.6888 H       1  UNL1        0.2883
     19 H         145.0380  141.9672  169.8958 H       1  UNL1        0.2883
     20 N         139.2660  140.0339  163.2709 N.am    1  UNL1       -0.2791
     21 C         138.2545  140.8938  162.5726 C.2     1  UNL1        0.2688
     22 O         137.2137  141.6241  163.3685 O.2     1  UNL1       -0.2681
     23 H         139.9491  139.5546  162.7485 H       1  UNL1        0.1552
     24 C         138.2838  141.0233  161.0785 C.ar    1  UNL1        0.1541
     25 C         138.2031  139.7976  160.2177 C.ar    1  UNL1        0.1258
     26 N         138.2325  139.9272  158.7235 N.ar    1  UNL1       -0.2070
     27 C         138.3425  141.2825  158.0903 C.ar    1  UNL1        0.2469
     28 C         138.4232  142.5082  158.9511 C.ar    1  UNL1        0.1566
     29 N         138.3939  142.3787  160.4452 N.ar    1  UNL1       -0.2328
     30 O         138.3718  141.4121  156.5962 O.3     1  UNL1       -0.4265
     31 C         137.1089  141.7118  155.8444 C.3     1  UNL1        0.4044
     32 F         135.7784  141.3686  156.4463 F       1  UNL1       -0.1809
@<TRIPOS>BOND
     1     9     8    1
     2     9     1    1
     3     1     2   ar
     4     2     3   ar
     5     3    20    1
     6    20    21   am
     7    21    22    2
     8    21    24    1
     9    24    25   ar
    10    25    26   ar
    11    26    27   ar
    12    27    30    1
    13    30    31    1
    14    31    32    1
    15    27    28   ar
    16    28    29   ar
    17     3     4   ar
    18     4     5   ar
    19     5     6   ar
    20     6     7    1
    21     9    10    1
    22    10    11    1
    23    11    12    1
    24    12    13    1
    25    12    14    1
    26    12    15    1
    27    15    16    1
    28    15    17    2
    29    17     9    1
    30     6     1   ar
    31    29    24   ar
    32    20    23    1
    33    16    18    1
    34    16    19    1
@<TRIPOS>MOLECULE
*****
 32 34 0 0 0
SMALL
GASTEIGER

@<TRIPOS>ATOM
      1 C         139.4143  139.1947  165.2583 C.ar    1  UNL1        0.0503
      2 C         139.7915  140.2832  164.2977 C.ar    1  UNL1        0.0166
      3 C         139.7267  140.0350  162.8199 C.ar    1  UNL1        0.0505
      4 C         139.2847  138.6982  162.3025 C.ar    1  UNL1        0.0170
      5 C         138.9074  137.6097  163.2631 C.ar    1  UNL1        0.0307
      6 C         138.9722  137.8579  164.7409 C.ar    1  UNL1        0.1401
      7 F         138.5950  136.7693  165.7015 F       1  UNL1       -0.2044
      8 C         137.9948  139.3199  166.5575 C.3     1  UNL1        0.0581
      9 C         139.4790  139.4428  166.7362 C.3     1  UNL1        0.1956
     10 C         140.9407  139.4795  166.4017 C.3     1  UNL1        0.0597
     11 C         141.9518  139.7217  167.4829 C.3     1  UNL1        0.0837
     12 C         141.5010  139.9272  168.8988 C.3     1  UNL1        0.3553
     13 F         141.5657  140.1754  170.3767 F       1  UNL1       -0.1914
     14 F         142.9853  140.0501  169.0775 F       1  UNL1       -0.1914
     15 C         140.0393  139.8905  169.2334 C.2     1  UNL1        0.3504
     16 N         139.5886  140.0960  170.6492 N.pl3   1  UNL1       -0.2456
     17 N         139.0283  139.6483  168.1521 N.2     1  UNL1       -0.0692
     18 H         140.2521  140.2550  171.3589 H       1  UNL1        0.2883
     19 H         138.6292  140.0719  170.8688 H       1  UNL1        0.2883
     20 N         140.1040  141.1236  161.8592 N.am    1  UNL1       -0.2791
     21 C         139.0398  141.9845  161.2458 C.2     1  UNL1        0.2688
     22 O         137.5983  141.7569  161.5930 O.2     1  UNL1       -0.2681
     23 H         141.0500  141.2730  161.6314 H       1  UNL1        0.1552
     24 C         139.4170  143.0731  160.2852 C.ar    1  UNL1        0.1541
     25 C         139.1286  142.9150  158.8217 C.ar    1  UNL1        0.1258
     26 N         139.5058  144.0036  157.8611 N.ar    1  UNL1       -0.2070
     27 C         140.1714  145.2502  158.3640 C.ar    1  UNL1        0.2469
     28 C         140.4598  145.4083  159.8276 C.ar    1  UNL1        0.1566
     29 N         140.0826  144.3197  160.7881 N.ar    1  UNL1       -0.2328
     30 O         140.5486  146.3388  157.4035 O.3     1  UNL1       -0.4265
     31 C         139.5366  146.8618  156.4276 C.3     1  UNL1        0.4044
     32 F         138.6444  148.0046  156.8125 F       1  UNL1       -0.1809
@<TRIPOS>BOND
     1     9     8    1
     2     9     1    1
     3     1     2   ar
     4     2     3   ar
     5     3    20    1
     6    20    21   am
     7    21    22    2
     8    21    24    1
     9    24    25   ar
    10    25    26   ar
    11    26    27   ar
    12    27    30    1
    13    30    31    1
    14    31    32    1
    15    27    28   ar
    16    28    29   ar
    17     3     4   ar
    18     4     5   ar
    19     5     6   ar
    20     6     7    1
    21     9    10    1
    22    10    11    1
    23    11    12    1
    24    12    13    1
    25    12    14    1
    26    12    15    1
    27    15    16    1
    28    15    17    2
    29    17     9    1
    30     6     1   ar
    31    29    24   ar
    32    20    23    1
    33    16    18    1
    34    16    19    1
@<TRIPOS>MOLECULE
*****
 32 34 0 0 0
SMALL
GASTEIGER

@<TRIPOS>ATOM
      1 C         140.4253  140.7940  166.3802 C.ar    1  UNL1        0.0503
      2 C         140.6279  141.3205  164.9904 C.ar    1  UNL1        0.0166
      3 C         139.6413  140.9871  163.9108 C.ar    1  UNL1        0.0505
      4 C         138.4521  140.1271  164.2211 C.ar    1  UNL1        0.0170
      5 C         138.2495  139.6006  165.6110 C.ar    1  UNL1        0.0307
      6 C         139.2361  139.9340  166.6905 C.ar    1  UNL1        0.1401
      7 F         139.0335  139.4075  168.0804 F       1  UNL1       -0.2044
      8 C         142.0792  139.9256  166.8592 C.3     1  UNL1        0.0581
      9 C         141.4119  141.1274  167.4598 C.3     1  UNL1        0.1956
     10 C         140.4021  142.2133  167.6854 C.3     1  UNL1        0.0597
     11 C         140.6105  143.2152  168.7821 C.3     1  UNL1        0.0837
     12 C         141.8289  143.1313  169.6531 C.3     1  UNL1        0.3553
     13 F         142.8154  143.4646  170.7326 F       1  UNL1       -0.1914
     14 F         141.1616  144.3330  170.2537 F       1  UNL1       -0.1914
     15 C         142.8387  142.0454  169.4274 C.2     1  UNL1        0.3504
     16 N         144.0571  141.9614  170.2985 N.pl3   1  UNL1       -0.2456
     17 N         142.6303  141.0434  168.3308 N.2     1  UNL1       -0.0692
     18 H         144.1939  142.6190  171.0182 H       1  UNL1        0.2883
     19 H         144.7199  141.2487  170.1504 H       1  UNL1        0.2883
     20 N         139.8439  141.5136  162.5209 N.am    1  UNL1       -0.2791
     21 C         139.4442  142.9200  162.1860 C.2     1  UNL1        0.2688
     22 O         138.8418  143.7999  163.2411 O.2     1  UNL1       -0.2681
     23 H         140.2392  140.9361  161.8285 H       1  UNL1        0.1552
     24 C         139.6467  143.4465  160.7962 C.ar    1  UNL1        0.1541
     25 C         138.9777  142.7738  159.6344 C.ar    1  UNL1        0.1258
     26 N         139.1803  143.3004  158.2445 N.ar    1  UNL1       -0.2070
     27 C         140.0519  144.4997  158.0165 C.ar    1  UNL1        0.2469
     28 C         140.7209  145.1724  159.1783 C.ar    1  UNL1        0.1566
     29 N         140.5184  144.6459  160.5681 N.ar    1  UNL1       -0.2328
     30 O         140.2544  145.0262  156.6266 O.3     1  UNL1       -0.4265
     31 C         140.0474  146.4838  156.3392 C.3     1  UNL1        0.4044
     32 F         139.2297  147.3240  157.2749 F       1  UNL1       -0.1809
@<TRIPOS>BOND
     1     9     8    1
     2     9     1    1
     3     1     2   ar
     4     2     3   ar
     5     3    20    1
     6    20    21   am
     7    21    22    2
     8    21    24    1
     9    24    25   ar
    10    25    26   ar
    11    26    27   ar
    12    27    30    1
    13    30    31    1
    14    31    32    1
    15    27    28   ar
    16    28    29   ar
    17     3     4   ar
    18     4     5   ar
    19     5     6   ar
    20     6     7    1
    21     9    10    1
    22    10    11    1
    23    11    12    1
    24    12    13    1
    25    12    14    1
    26    12    15    1
    27    15    16    1
    28    15    17    2
    29    17     9    1
    30     6     1   ar
    31    29    24   ar
    32    20    23    1
    33    16    18    1
    34    16    19    1
@<TRIPOS>MOLECULE
*****
 32 34 0 0 0
SMALL
GASTEIGER

@<TRIPOS>ATOM
      1 C         142.1805  140.7929  166.1568 C.ar    1  UNL1        0.0503
      2 C         141.8043  141.5319  164.9069 C.ar    1  UNL1        0.0166
      3 C         142.3437  141.0852  163.5805 C.ar    1  UNL1        0.0505
      4 C         143.2591  139.8994  163.5039 C.ar    1  UNL1        0.0170
      5 C         143.6353  139.1604  164.7538 C.ar    1  UNL1        0.0307
      6 C         143.0959  139.6071  166.0803 C.ar    1  UNL1        0.1401
      7 F         143.4721  138.8681  167.3303 F       1  UNL1       -0.2044
      8 C         142.8566  142.1136  167.3886 C.3     1  UNL1        0.0581
      9 C         141.6411  141.2396  167.4834 C.3     1  UNL1        0.1956
     10 C         140.6131  140.2105  167.1174 C.3     1  UNL1        0.0597
     11 C         139.4677  139.9317  168.0450 C.3     1  UNL1        0.0837
     12 C         139.3506  140.6819  169.3387 C.3     1  UNL1        0.3553
     13 F         138.8113  141.1286  170.6651 F       1  UNL1       -0.1914
     14 F         138.1351  139.8079  169.4334 F       1  UNL1       -0.1914
     15 C         140.3786  141.7110  169.7046 C.2     1  UNL1        0.3504
     16 N         140.2614  142.4613  170.9982 N.pl3   1  UNL1       -0.2456
     17 N         141.5239  141.9899  168.7770 N.2     1  UNL1       -0.0692
     18 H         139.5097  142.2782  171.6071 H       1  UNL1        0.2883
     19 H         140.9362  143.1367  171.2384 H       1  UNL1        0.2883
     20 N         141.9676  141.8243  162.3305 N.am    1  UNL1       -0.2791
     21 C         142.7125  143.0666  161.9408 C.2     1  UNL1        0.2688
     22 O         143.8335  143.5698  162.8012 O.2     1  UNL1       -0.2681
     23 H         141.2318  141.4940  161.7659 H       1  UNL1        0.1552
     24 C         142.3364  143.8056  160.6909 C.ar    1  UNL1        0.1541
     25 C         141.2144  144.8008  160.7169 C.ar    1  UNL1        0.1258
     26 N         140.8383  145.5398  159.4669 N.ar    1  UNL1       -0.2070
     27 C         141.5843  145.2837  158.1910 C.ar    1  UNL1        0.2469
     28 C         142.7064  144.2886  158.1651 C.ar    1  UNL1        0.1566
     29 N         143.0824  143.5495  159.4150 N.ar    1  UNL1       -0.2328
     30 O         141.2082  146.0228  156.9411 O.3     1  UNL1       -0.4265
     31 C         139.7795  146.4114  156.7007 C.3     1  UNL1        0.4044
     32 F         139.1959  147.5983  157.4082 F       1  UNL1       -0.1809
@<TRIPOS>BOND
     1     9     8    1
     2     9     1    1
     3     1     2   ar
     4     2     3   ar
     5     3    20    1
     6    20    21   am
     7    21    22    2
     8    21    24    1
     9    24    25   ar
    10    25    26   ar
    11    26    27   ar
    12    27    30    1
    13    30    31    1
    14    31    32    1
    15    27    28   ar
    16    28    29   ar
    17     3     4   ar
    18     4     5   ar
    19     5     6   ar
    20     6     7    1
    21     9    10    1
    22    10    11    1
    23    11    12    1
    24    12    13    1
    25    12    14    1
    26    12    15    1
    27    15    16    1
    28    15    17    2
    29    17     9    1
    30     6     1   ar
    31    29    24   ar
    32    20    23    1
    33    16    18    1
    34    16    19    1
@<TRIPOS>MOLECULE
*****
 32 34 0 0 0
SMALL
GASTEIGER

@<TRIPOS>ATOM
      1 C         141.7460  142.4595  164.7887 C.ar    1  UNL1        0.0503
      2 C         141.4298  143.1756  163.5092 C.ar    1  UNL1        0.0166
      3 C         142.4218  144.1353  162.9220 C.ar    1  UNL1        0.0505
      4 C         143.7300  144.3789  163.6143 C.ar    1  UNL1        0.0170
      5 C         144.0462  143.6628  164.8938 C.ar    1  UNL1        0.0307
      6 C         143.0542  142.7031  165.4810 C.ar    1  UNL1        0.1401
      7 F         143.3704  141.9869  166.7606 F       1  UNL1       -0.2044
      8 C         140.3482  142.7588  166.0829 C.3     1  UNL1        0.0581
      9 C         140.7540  141.4996  165.3759 C.3     1  UNL1        0.1956
     10 C         141.5044  140.5739  164.4650 C.3     1  UNL1        0.0597
     11 C         141.1218  139.1256  164.3868 C.3     1  UNL1        0.0837
     12 C         139.9888  138.6031  165.2196 C.3     1  UNL1        0.3553
     13 F         138.9969  137.6434  165.8068 F       1  UNL1       -0.1914
     14 F         140.3947  137.3439  164.5126 F       1  UNL1       -0.1914
     15 C         139.2385  139.5289  166.1305 C.2     1  UNL1        0.3504
     16 N         138.1055  139.0064  166.9633 N.pl3   1  UNL1       -0.2456
     17 N         139.6211  140.9772  166.2087 N.2     1  UNL1       -0.0692
     18 H         137.8544  138.0559  166.9120 H       1  UNL1        0.2883
     19 H         137.6131  139.6141  167.5611 H       1  UNL1        0.2883
     20 N         142.1057  144.8515  161.6424 N.am    1  UNL1       -0.2791
     21 C         141.8788  144.0704  160.3821 C.2     1  UNL1        0.2688
     22 O         141.9681  142.5731  160.4013 O.2     1  UNL1       -0.2681
     23 H         142.0471  145.8342  161.6299 H       1  UNL1        0.1552
     24 C         141.5626  144.7865  159.1026 C.ar    1  UNL1        0.1541
     25 C         140.2380  145.4696  158.9329 C.ar    1  UNL1        0.1258
     26 N         139.9219  146.1857  157.6533 N.ar    1  UNL1       -0.2070
     27 C         140.9304  146.2187  156.5435 C.ar    1  UNL1        0.2469
     28 C         142.2550  145.5357  156.7131 C.ar    1  UNL1        0.1566
     29 N         142.5711  144.8196  157.9927 N.ar    1  UNL1       -0.2328
     30 O         140.6142  146.9348  155.2640 O.3     1  UNL1       -0.4265
     31 C         139.2628  147.5548  155.0656 C.3     1  UNL1        0.4044
     32 F         138.0475  146.6833  154.9499 F       1  UNL1       -0.1809
@<TRIPOS>BOND
     1     9     8    1
     2     9     1    1
     3     1     2   ar
     4     2     3   ar
     5     3    20    1
     6    20    21   am
     7    21    22    2
     8    21    24    1
     9    24    25   ar
    10    25    26   ar
    11    26    27   ar
    12    27    30    1
    13    30    31    1
    14    31    32    1
    15    27    28   ar
    16    28    29   ar
    17     3     4   ar
    18     4     5   ar
    19     5     6   ar
    20     6     7    1
    21     9    10    1
    22    10    11    1
    23    11    12    1
    24    12    13    1
    25    12    14    1
    26    12    15    1
    27    15    16    1
    28    15    17    2
    29    17     9    1
    30     6     1   ar
    31    29    24   ar
    32    20    23    1
    33    16    18    1
    34    16    19    1
@<TRIPOS>MOLECULE
*****
 32 34 0 0 0
SMALL
GASTEIGER

@<TRIPOS>ATOM
      1 C         141.9233  140.4017  166.5462 C.ar    1  UNL1        0.0503
      2 C         141.4188  140.5924  165.1465 C.ar    1  UNL1        0.0166
      3 C         141.7456  139.5819  164.0873 C.ar    1  UNL1        0.0505
      4 C         142.5770  138.3806  164.4277 C.ar    1  UNL1        0.0170
      5 C         143.0815  138.1900  165.8274 C.ar    1  UNL1        0.0307
      6 C         142.7547  139.2005  166.8866 C.ar    1  UNL1        0.1401
      7 F         143.2593  139.0098  168.2863 F       1  UNL1       -0.2044
      8 C         142.7914  142.0683  166.9794 C.3     1  UNL1        0.0581
      9 C         141.5965  141.4122  167.6055 C.3     1  UNL1        0.1956
     10 C         140.5152  140.4053  167.8636 C.3     1  UNL1        0.0597
     11 C         139.5220  140.6366  168.9636 C.3     1  UNL1        0.0837
     12 C         139.6102  141.8750  169.8055 C.3     1  UNL1        0.3553
     13 F         139.2834  142.8856  170.8647 F       1  UNL1       -0.1914
     14 F         138.4153  141.2190  170.4316 F       1  UNL1       -0.1914
     15 C         140.6915  142.8820  169.5473 C.2     1  UNL1        0.3504
     16 N         140.7797  144.1204  170.3892 N.pl3   1  UNL1       -0.2456
     17 N         141.6847  142.6506  168.4473 N.2     1  UNL1       -0.0692
     18 H         140.1278  144.2723  171.1112 H       1  UNL1        0.2883
     19 H         141.4894  144.7813  170.2197 H       1  UNL1        0.2883
     20 N         141.2410  139.7725  162.6876 N.am    1  UNL1       -0.2791
     21 C         139.7758  139.6423  162.3943 C.2     1  UNL1        0.2688
     22 O         138.8151  139.3213  163.5008 O.2     1  UNL1       -0.2681
     23 H         141.8716  139.9832  161.9614 H       1  UNL1        0.1552
     24 C         139.2712  139.8329  160.9947 C.ar    1  UNL1        0.1541
     25 C         137.8003  139.7564  160.7108 C.ar    1  UNL1        0.1258
     26 N         137.2957  139.9470  159.3110 N.ar    1  UNL1       -0.2070
     27 C         138.2620  140.2142  158.1953 C.ar    1  UNL1        0.2469
     28 C         139.7329  140.2907  158.4793 C.ar    1  UNL1        0.1566
     29 N         140.2375  140.1001  159.8789 N.ar    1  UNL1       -0.2328
     30 O         137.7574  140.4048  156.7957 O.3     1  UNL1       -0.4265
     31 C         136.7287  141.4574  156.5062 C.3     1  UNL1        0.4044
     32 F         135.2878  141.0733  156.3437 F       1  UNL1       -0.1809
@<TRIPOS>BOND
     1     9     8    1
     2     9     1    1
     3     1     2   ar
     4     2     3   ar
     5     3    20    1
     6    20    21   am
     7    21    22    2
     8    21    24    1
     9    24    25   ar
    10    25    26   ar
    11    26    27   ar
    12    27    30    1
    13    30    31    1
    14    31    32    1
    15    27    28   ar
    16    28    29   ar
    17     3     4   ar
    18     4     5   ar
    19     5     6   ar
    20     6     7    1
    21     9    10    1
    22    10    11    1
    23    11    12    1
    24    12    13    1
    25    12    14    1
    26    12    15    1
    27    15    16    1
    28    15    17    2
    29    17     9    1
    30     6     1   ar
    31    29    24   ar
    32    20    23    1
    33    16    18    1
    34    16    19    1
@<TRIPOS>MOLECULE
*****
 32 34 0 0 0
SMALL
GASTEIGER

@<TRIPOS>ATOM
      1 C         141.8702  141.8721  165.7172 C.ar    1  UNL1        0.0503
      2 C         141.1281  141.4362  164.4887 C.ar    1  UNL1        0.0166
      3 C         141.6542  141.7907  163.1295 C.ar    1  UNL1        0.0505
      4 C         142.9223  142.5810  162.9988 C.ar    1  UNL1        0.0170
      5 C         143.6644  143.0169  164.2273 C.ar    1  UNL1        0.0307
      6 C         143.1384  142.6624  165.5865 C.ar    1  UNL1        0.1401
      7 F         143.8805  143.0983  166.8151 F       1  UNL1       -0.2044
      8 C         140.4663  142.6908  166.7553 C.3     1  UNL1        0.0581
      9 C         141.3441  141.5176  167.0766 C.3     1  UNL1        0.1956
     10 C         142.4045  140.4676  166.9257 C.3     1  UNL1        0.0597
     11 C         142.6341  139.4706  168.0226 C.3     1  UNL1        0.0837
     12 C         141.8032  139.5236  169.2703 C.3     1  UNL1        0.3553
     13 F         141.2771  139.1692  170.6296 F       1  UNL1       -0.1914
     14 F         142.6810  138.3504  169.5916 F       1  UNL1       -0.1914
     15 C         140.7427  140.5736  169.4212 C.2     1  UNL1        0.3504
     16 N         139.9118  140.6266  170.6689 N.pl3   1  UNL1       -0.2456
     17 N         140.5131  141.5707  168.3243 N.2     1  UNL1       -0.0692
     18 H         140.0624  139.9722  171.3888 H       1  UNL1        0.2883
     19 H         139.2157  141.3158  170.7679 H       1  UNL1        0.2883
     20 N         140.9120  141.3548  161.9009 N.am    1  UNL1       -0.2791
     21 C         139.8571  142.2412  161.3080 C.2     1  UNL1        0.2688
     22 O         139.5443  143.5633  161.9437 O.2     1  UNL1       -0.2681
     23 H         141.1174  140.4871  161.4837 H       1  UNL1        0.1552
     24 C         139.1150  141.8054  160.0795 C.ar    1  UNL1        0.1541
     25 C         138.8950  140.3454  159.8145 C.ar    1  UNL1        0.1258
     26 N         138.1528  139.9096  158.5859 N.ar    1  UNL1       -0.2070
     27 C         137.6308  140.9338  157.6223 C.ar    1  UNL1        0.2469
     28 C         137.8508  142.3937  157.8873 C.ar    1  UNL1        0.1566
     29 N         138.5929  142.8295  159.1158 N.ar    1  UNL1       -0.2328
     30 O         136.8887  140.4980  156.3938 O.3     1  UNL1       -0.4265
     31 C         135.4189  140.7703  156.2693 C.3     1  UNL1        0.4044
     32 F         134.4541  140.1303  157.2232 F       1  UNL1       -0.1809
@<TRIPOS>BOND
     1     9     8    1
     2     9     1    1
     3     1     2   ar
     4     2     3   ar
     5     3    20    1
     6    20    21   am
     7    21    22    2
     8    21    24    1
     9    24    25   ar
    10    25    26   ar
    11    26    27   ar
    12    27    30    1
    13    30    31    1
    14    31    32    1
    15    27    28   ar
    16    28    29   ar
    17     3     4   ar
    18     4     5   ar
    19     5     6   ar
    20     6     7    1
    21     9    10    1
    22    10    11    1
    23    11    12    1
    24    12    13    1
    25    12    14    1
    26    12    15    1
    27    15    16    1
    28    15    17    2
    29    17     9    1
    30     6     1   ar
    31    29    24   ar
    32    20    23    1
    33    16    18    1
    34    16    19    1
@<TRIPOS>MOLECULE
*****
 32 34 0 0 0
SMALL
GASTEIGER

@<TRIPOS>ATOM
      1 C         142.2894  141.5907  165.9766 C.ar    1  UNL1        0.0503
      2 C         141.5595  141.2108  164.7225 C.ar    1  UNL1        0.0166
      3 C         141.9358  141.8424  163.4151 C.ar    1  UNL1        0.0505
      4 C         143.0421  142.8540  163.3618 C.ar    1  UNL1        0.0170
      5 C         143.7720  143.2339  164.6158 C.ar    1  UNL1        0.0307
      6 C         143.3957  142.6023  165.9233 C.ar    1  UNL1        0.1401
      7 F         144.1257  142.9823  167.1774 F       1  UNL1       -0.2044
      8 C         142.7801  139.8769  166.7120 C.3     1  UNL1        0.0581
      9 C         141.9131  140.9591  167.2841 C.3     1  UNL1        0.1956
     10 C         141.1769  142.2606  167.4021 C.3     1  UNL1        0.0597
     11 C         140.3655  142.5547  168.6289 C.3     1  UNL1        0.0837
     12 C         140.2902  141.5472  169.7377 C.3     1  UNL1        0.3553
     13 F         139.9140  140.9156  171.0452 F       1  UNL1       -0.1914
     14 F         139.4233  142.6294  170.3099 F       1  UNL1       -0.1914
     15 C         141.0265  140.2457  169.6197 C.2     1  UNL1        0.3504
     16 N         140.9512  139.2382  170.7285 N.pl3   1  UNL1       -0.2456
     17 N         141.8379  139.9516  168.3929 N.2     1  UNL1       -0.0692
     18 H         140.4187  139.4312  171.5337 H       1  UNL1        0.2883
     19 H         141.4345  138.3840  170.6510 H       1  UNL1        0.2883
     20 N         141.2059  141.4624  162.1609 N.am    1  UNL1       -0.2791
     21 C         139.8594  142.0551  161.8680 C.2     1  UNL1        0.2688
     22 O         139.2429  143.0278  162.8293 O.2     1  UNL1       -0.2681
     23 H         141.6105  140.8240  161.5301 H       1  UNL1        0.1552
     24 C         139.1295  141.6752  160.6139 C.ar    1  UNL1        0.1541
     25 C         138.5585  140.2959  160.4671 C.ar    1  UNL1        0.1258
     26 N         137.8285  139.9160  159.2129 N.ar    1  UNL1       -0.2070
     27 C         137.6695  140.9154  158.1057 C.ar    1  UNL1        0.2469
     28 C         138.2406  142.2947  158.2525 C.ar    1  UNL1        0.1566
     29 N         138.9705  142.6746  159.5066 N.ar    1  UNL1       -0.2328
     30 O         136.9396  140.5355  156.8516 O.3     1  UNL1       -0.4265
     31 C         136.3558  141.6008  155.9716 C.3     1  UNL1        0.4044
     32 F         134.9065  141.5462  155.5886 F       1  UNL1       -0.1809
@<TRIPOS>BOND
     1     9     8    1
     2     9     1    1
     3     1     2   ar
     4     2     3   ar
     5     3    20    1
     6    20    21   am
     7    21    22    2
     8    21    24    1
     9    24    25   ar
    10    25    26   ar
    11    26    27   ar
    12    27    30    1
    13    30    31    1
    14    31    32    1
    15    27    28   ar
    16    28    29   ar
    17     3     4   ar
    18     4     5   ar
    19     5     6   ar
    20     6     7    1
    21     9    10    1
    22    10    11    1
    23    11    12    1
    24    12    13    1
    25    12    14    1
    26    12    15    1
    27    15    16    1
    28    15    17    2
    29    17     9    1
    30     6     1   ar
    31    29    24   ar
    32    20    23    1
    33    16    18    1
    34    16    19    1
