@<TRIPOS>MOLECULE
*****
 33 36 0 0 0
SMALL
GASTEIGER

@<TRIPOS>ATOM
      1 C         139.1659  143.1910  158.5262 C.3     1  UNL1        0.0276
      2 C         139.6319  142.8861  159.9190 C.3     1  UNL1        0.1109
      3 C         138.5771  141.8314  159.7605 C.3     1  UNL1        0.0276
      4 C         139.7316  142.2149  161.2567 C.ar    1  UNL1        0.1375
      5 N         138.9892  141.0580  161.8570 N.ar    1  UNL1       -0.2280
      6 C         139.5230  140.8323  163.2405 C.ar    1  UNL1        0.1125
      7 C         140.5953  141.8497  163.4953 C.ar    1  UNL1        0.1318
      8 N         140.7242  142.7043  162.2693 N.ar    1  UNL1       -0.3006
      9 C         141.6173  143.8647  161.9440 C.3     1  UNL1        0.1299
     10 C         141.5176  144.5359  160.6063 C.3     1  UNL1        0.1182
     11 N         140.5249  144.0465  159.5938 N.am    1  UNL1       -0.2732
     12 C         140.4253  144.7177  158.2560 C.2     1  UNL1        0.2418
     13 O         139.4326  144.2284  157.2434 O.2     1  UNL1       -0.2734
     14 C         139.0650  139.7748  164.2007 C.ar    1  UNL1        0.0205
     15 C         139.3454  138.3294  163.9142 C.ar    1  UNL1        0.0039
     16 C         138.8873  137.2719  164.8743 C.ar    1  UNL1        0.0297
     17 C         138.1489  137.6598  166.1210 C.ar    1  UNL1        0.1401
     18 F         137.6908  136.6023  167.0811 F       1  UNL1       -0.2042
     19 C         137.8685  139.1052  166.4075 C.ar    1  UNL1        0.0297
     20 C         138.3266  140.1627  165.4473 C.ar    1  UNL1        0.0039
     21 C         141.3183  145.8782  157.9307 C.3     1  UNL1        0.1517
     22 N         142.7199  145.6356  157.4544 N.3     1  UNL1       -0.3135
     23 H         143.2638  145.2062  158.2028 H       1  UNL1        0.1193
     24 H         143.1473  146.5230  157.1895 H       1  UNL1        0.1193
     25 N         141.3979  141.9884  164.7549 N.pl3   1  UNL1       -0.2980
     26 H         141.4415  142.8562  165.2178 H       1  UNL1        0.1536
     27 C         142.1340  140.8049  165.3093 C.ar    1  UNL1        0.0495
     28 C         143.0605  140.0186  164.4298 C.ar    1  UNL1        0.0169
     29 C         143.7967  138.8350  164.9842 C.ar    1  UNL1        0.0309
     30 C         143.6064  138.4378  166.4181 C.ar    1  UNL1        0.1402
     31 F         144.3426  137.2543  166.9725 F       1  UNL1       -0.2042
     32 C         142.6800  139.2241  167.2976 C.ar    1  UNL1        0.0309
     33 C         141.9438  140.4076  166.7432 C.ar    1  UNL1        0.0169
@<TRIPOS>BOND
     1     1     2    1
     2     2     3    1
     3     2     4    1
     4     4     5   ar
     5     5     6   ar
     6     6    14    1
     7    14    15   ar
     8    15    16   ar
     9    16    17   ar
    10    17    18    1
    11    17    19   ar
    12    19    20   ar
    13     6     7   ar
    14     7    25    1
    15    25    27    1
    16    27    28   ar
    17    28    29   ar
    18    29    30   ar
    19    30    31    1
    20    30    32   ar
    21    32    33   ar
    22     7     8   ar
    23     8     9    1
    24     9    10    1
    25    10    11    1
    26    11    12   am
    27    12    13    2
    28    12    21    1
    29    21    22    1
    30    11     2    1
    31     8     4   ar
    32    20    14   ar
    33    33    27   ar
    34    25    26    1
    35    22    23    1
    36    22    24    1
@<TRIPOS>MOLECULE
*****
 33 36 0 0 0
SMALL
GASTEIGER

@<TRIPOS>ATOM
      1 C         140.3017  145.3567  160.9554 C.3     1  UNL1        0.0276
      2 C         140.5181  144.1971  161.8820 C.3     1  UNL1        0.1109
      3 C         140.6949  145.3351  162.8431 C.3     1  UNL1        0.0276
      4 C         140.7959  143.4328  163.1424 C.ar    1  UNL1        0.1375
      5 N         141.0788  143.8802  164.5459 N.ar    1  UNL1       -0.2280
      6 C         141.2795  142.6572  165.3908 C.ar    1  UNL1        0.1125
      7 C         141.1206  141.4538  164.5095 C.ar    1  UNL1        0.1318
      8 N         140.8218  141.9332  163.1199 N.ar    1  UNL1       -0.3006
      9 C         140.5698  141.1979  161.8370 C.3     1  UNL1        0.1299
     10 C         140.2920  141.9622  160.5766 C.3     1  UNL1        0.1182
     11 N         140.2662  143.4618  160.5991 N.am    1  UNL1       -0.2732
     12 C         139.9884  144.2262  159.3387 C.2     1  UNL1        0.2418
     13 O         139.9625  145.7258  159.3612 O.2     1  UNL1       -0.2734
     14 C         141.5853  142.6404  166.8592 C.ar    1  UNL1        0.0205
     15 C         142.9543  142.2549  167.3358 C.ar    1  UNL1        0.0039
     16 C         143.2602  142.2381  168.8042 C.ar    1  UNL1        0.0297
     17 C         142.1970  142.6068  169.7960 C.ar    1  UNL1        0.1401
     18 F         142.5028  142.5901  171.2644 F       1  UNL1       -0.2042
     19 C         140.8280  142.9923  169.3194 C.ar    1  UNL1        0.0297
     20 C         140.5222  143.0091  167.8510 C.ar    1  UNL1        0.0039
     21 C         139.7364  143.4909  158.0558 C.3     1  UNL1        0.1517
     22 N         140.8884  143.0879  157.1835 N.3     1  UNL1       -0.3135
     23 H         141.3442  143.9228  156.8151 H       1  UNL1        0.1193
     24 H         140.5461  142.5180  156.4100 H       1  UNL1        0.1193
     25 N         141.2397  140.0224  164.9418 N.pl3   1  UNL1       -0.2980
     26 H         142.0861  139.5372  164.8098 H       1  UNL1        0.1536
     27 C         140.0694  139.3304  165.5752 C.ar    1  UNL1        0.0495
     28 C         139.4253  139.9133  166.7981 C.ar    1  UNL1        0.0169
     29 C         138.2549  139.2212  167.4316 C.ar    1  UNL1        0.0309
     30 C         137.7286  137.9462  166.8421 C.ar    1  UNL1        0.1402
     31 F         136.5583  137.2542  167.4756 F       1  UNL1       -0.2042
     32 C         138.3727  137.3633  165.6193 C.ar    1  UNL1        0.0309
     33 C         139.5431  138.0554  164.9858 C.ar    1  UNL1        0.0169
@<TRIPOS>BOND
     1     1     2    1
     2     2     3    1
     3     2     4    1
     4     4     5   ar
     5     5     6   ar
     6     6    14    1
     7    14    15   ar
     8    15    16   ar
     9    16    17   ar
    10    17    18    1
    11    17    19   ar
    12    19    20   ar
    13     6     7   ar
    14     7    25    1
    15    25    27    1
    16    27    28   ar
    17    28    29   ar
    18    29    30   ar
    19    30    31    1
    20    30    32   ar
    21    32    33   ar
    22     7     8   ar
    23     8     9    1
    24     9    10    1
    25    10    11    1
    26    11    12   am
    27    12    13    2
    28    12    21    1
    29    21    22    1
    30    11     2    1
    31     8     4   ar
    32    20    14   ar
    33    33    27   ar
    34    25    26    1
    35    22    23    1
    36    22    24    1
@<TRIPOS>MOLECULE
*****
 33 36 0 0 0
SMALL
GASTEIGER

@<TRIPOS>ATOM
      1 C         141.3369  139.7622  157.2654 C.3     1  UNL1        0.0276
      2 C         141.3392  139.7810  158.7653 C.3     1  UNL1        0.1109
      3 C         140.6009  141.0574  158.4899 C.3     1  UNL1        0.0276
      4 C         141.0851  140.2431  160.1696 C.ar    1  UNL1        0.1375
      5 N         140.3912  141.4549  160.7174 N.ar    1  UNL1       -0.2280
      6 C         140.4457  141.3830  162.2147 C.ar    1  UNL1        0.1125
      7 C         141.1733  140.1268  162.5922 C.ar    1  UNL1        0.1318
      8 N         141.5685  139.4223  161.3283 N.ar    1  UNL1       -0.3006
      9 C         142.3060  138.1395  161.0828 C.3     1  UNL1        0.1299
     10 C         142.5601  137.6774  159.6786 C.3     1  UNL1        0.1182
     11 N         142.0767  138.4982  158.5199 N.am    1  UNL1       -0.2732
     12 C         142.3309  138.0360  157.1156 C.2     1  UNL1        0.2418
     13 O         141.8475  138.8568  155.9569 O.2     1  UNL1       -0.2734
     14 C         139.8732  142.3905  163.1672 C.ar    1  UNL1        0.0205
     15 C         140.7617  143.4309  163.7820 C.ar    1  UNL1        0.0039
     16 C         140.1892  144.4383  164.7344 C.ar    1  UNL1        0.0297
     17 C         138.7281  144.4054  165.0721 C.ar    1  UNL1        0.1401
     18 F         138.1555  145.4128  166.0246 F       1  UNL1       -0.2042
     19 C         137.8395  143.3650  164.4573 C.ar    1  UNL1        0.0297
     20 C         138.4121  142.3575  163.5048 C.ar    1  UNL1        0.0039
     21 C         143.0684  136.7532  156.8701 C.3     1  UNL1        0.1517
     22 N         144.1992  136.7148  155.8852 N.3     1  UNL1       -0.3135
     23 H         143.8386  136.8866  154.9467 H       1  UNL1        0.1193
     24 H         144.6454  135.7981  155.9154 H       1  UNL1        0.1193
     25 N         141.4562  139.6575  163.9886 N.pl3   1  UNL1       -0.2980
     26 H         142.3826  139.6303  164.3205 H       1  UNL1        0.1536
     27 C         140.3276  139.2297  164.8791 C.ar    1  UNL1        0.0495
     28 C         139.5951  137.9508  164.5996 C.ar    1  UNL1        0.0169
     29 C         138.4664  137.5228  165.4901 C.ar    1  UNL1        0.0309
     30 C         138.0703  138.3738  166.6602 C.ar    1  UNL1        0.1402
     31 F         136.9416  137.9459  167.5507 F       1  UNL1       -0.2042
     32 C         138.8027  139.6526  166.9396 C.ar    1  UNL1        0.0309
     33 C         139.9314  140.0806  166.0491 C.ar    1  UNL1        0.0169
@<TRIPOS>BOND
     1     1     2    1
     2     2     3    1
     3     2     4    1
     4     4     5   ar
     5     5     6   ar
     6     6    14    1
     7    14    15   ar
     8    15    16   ar
     9    16    17   ar
    10    17    18    1
    11    17    19   ar
    12    19    20   ar
    13     6     7   ar
    14     7    25    1
    15    25    27    1
    16    27    28   ar
    17    28    29   ar
    18    29    30   ar
    19    30    31    1
    20    30    32   ar
    21    32    33   ar
    22     7     8   ar
    23     8     9    1
    24     9    10    1
    25    10    11    1
    26    11    12   am
    27    12    13    2
    28    12    21    1
    29    21    22    1
    30    11     2    1
    31     8     4   ar
    32    20    14   ar
    33    33    27   ar
    34    25    26    1
    35    22    23    1
    36    22    24    1
@<TRIPOS>MOLECULE
*****
 33 36 0 0 0
SMALL
GASTEIGER

@<TRIPOS>ATOM
      1 C         142.9260  138.9587  168.3372 C.3     1  UNL1        0.0276
      2 C         142.1981  139.3966  167.1009 C.3     1  UNL1        0.1109
      3 C         143.3788  138.7114  166.4791 C.3     1  UNL1        0.0276
      4 C         141.8802  139.5965  165.6487 C.ar    1  UNL1        0.1375
      5 N         142.6001  139.1871  164.3980 N.ar    1  UNL1       -0.2280
      6 C         141.7993  139.6670  163.2239 C.ar    1  UNL1        0.1125
      7 C         140.5845  140.3731  163.7490 C.ar    1  UNL1        0.1318
      8 N         140.6345  140.3295  165.2476 N.ar    1  UNL1       -0.3006
      9 C         139.7067  140.8626  166.2987 C.3     1  UNL1        0.1299
     10 C         140.0246  140.6627  167.7509 C.3     1  UNL1        0.1182
     11 N         141.2703  139.9297  168.1520 N.am    1  UNL1       -0.2732
     12 C         141.5881  139.7298  169.6043 C.2     1  UNL1        0.2418
     13 O         142.8338  138.9968  170.0054 O.2     1  UNL1       -0.2734
     14 C         142.1515  139.4746  161.7786 C.ar    1  UNL1        0.0205
     15 C         143.3783  140.1260  161.2125 C.ar    1  UNL1        0.0039
     16 C         143.7305  139.9336  159.7672 C.ar    1  UNL1        0.0297
     17 C         142.8559  139.0899  158.8880 C.ar    1  UNL1        0.1401
     18 F         143.2080  138.8975  157.4426 F       1  UNL1       -0.2042
     19 C         141.6290  138.4385  159.4541 C.ar    1  UNL1        0.0297
     20 C         141.2768  138.6309  160.8994 C.ar    1  UNL1        0.0039
     21 C         140.6603  140.2629  170.6554 C.3     1  UNL1        0.1517
     22 N         139.5936  139.3798  171.2320 N.3     1  UNL1       -0.3135
     23 H         138.9148  139.1485  170.5066 H       1  UNL1        0.1193
     24 H         139.1235  139.8679  171.9943 H       1  UNL1        0.1193
     25 N         139.5086  141.0108  162.9209 N.pl3   1  UNL1       -0.2980
     26 H         138.7741  140.4626  162.5615 H       1  UNL1        0.1536
     27 C         139.5518  142.4836  162.6404 C.ar    1  UNL1        0.0495
     28 C         140.6557  143.0552  161.8009 C.ar    1  UNL1        0.0169
     29 C         140.6990  144.5281  161.5204 C.ar    1  UNL1        0.0309
     30 C         139.6382  145.4295  162.0793 C.ar    1  UNL1        0.1402
     31 F         139.6814  146.9023  161.7987 F       1  UNL1       -0.2042
     32 C         138.5343  144.8579  162.9187 C.ar    1  UNL1        0.0309
     33 C         138.4911  143.3850  163.1993 C.ar    1  UNL1        0.0169
@<TRIPOS>BOND
     1     1     2    1
     2     2     3    1
     3     2     4    1
     4     4     5   ar
     5     5     6   ar
     6     6    14    1
     7    14    15   ar
     8    15    16   ar
     9    16    17   ar
    10    17    18    1
    11    17    19   ar
    12    19    20   ar
    13     6     7   ar
    14     7    25    1
    15    25    27    1
    16    27    28   ar
    17    28    29   ar
    18    29    30   ar
    19    30    31    1
    20    30    32   ar
    21    32    33   ar
    22     7     8   ar
    23     8     9    1
    24     9    10    1
    25    10    11    1
    26    11    12   am
    27    12    13    2
    28    12    21    1
    29    21    22    1
    30    11     2    1
    31     8     4   ar
    32    20    14   ar
    33    33    27   ar
    34    25    26    1
    35    22    23    1
    36    22    24    1
@<TRIPOS>MOLECULE
*****
 33 36 0 0 0
SMALL
GASTEIGER

@<TRIPOS>ATOM
      1 C         139.0362  139.7960  168.9690 C.3     1  UNL1        0.0276
      2 C         139.6739  140.3486  167.7288 C.3     1  UNL1        0.1109
      3 C         138.6391  139.4539  167.1132 C.3     1  UNL1        0.0276
      4 C         139.9521  140.5904  166.2748 C.ar    1  UNL1        0.1375
      5 N         139.3210  140.0454  165.0279 N.ar    1  UNL1       -0.2280
      6 C         140.0225  140.6532  163.8496 C.ar    1  UNL1        0.1125
      7 C         141.0872  141.5738  164.3682 C.ar    1  UNL1        0.1318
      8 N         141.0437  141.5350  165.8671 N.ar    1  UNL1       -0.3006
      9 C         141.8570  142.2378  166.9133 C.3     1  UNL1        0.1299
     10 C         141.5787  141.9959  168.3673 C.3     1  UNL1        0.1182
     11 N         140.4872  141.0513  168.7750 N.am    1  UNL1       -0.2732
     12 C         140.2089  140.8095  170.2291 C.2     1  UNL1        0.2418
     13 O         139.1174  139.8649  170.6368 O.2     1  UNL1       -0.2734
     14 C         139.7136  140.3871  162.4060 C.ar    1  UNL1        0.0205
     15 C         140.5238  139.3852  161.6380 C.ar    1  UNL1        0.0039
     16 C         140.2149  139.1191  160.1945 C.ar    1  UNL1        0.0297
     17 C         139.0958  139.8548  159.5190 C.ar    1  UNL1        0.1401
     18 F         138.7869  139.5887  158.0755 F       1  UNL1       -0.2042
     19 C         138.2857  140.8567  160.2870 C.ar    1  UNL1        0.0297
     20 C         138.5946  141.1228  161.7305 C.ar    1  UNL1        0.0039
     21 C         141.0222  141.5123  171.2753 C.3     1  UNL1        0.1517
     22 N         142.2293  140.8424  171.8622 N.3     1  UNL1       -0.3135
     23 H         141.9380  140.0226  172.3946 H       1  UNL1        0.1193
     24 H         142.7134  141.4943  172.4795 H       1  UNL1        0.1193
     25 N         142.0299  142.3899  163.5344 N.pl3   1  UNL1       -0.2980
     26 H         143.0012  142.3200  163.6787 H       1  UNL1        0.1536
     27 C         141.4927  143.3125  162.4808 C.ar    1  UNL1        0.0495
     28 C         140.6687  144.5024  162.8751 C.ar    1  UNL1        0.0169
     29 C         140.1315  145.4251  161.8216 C.ar    1  UNL1        0.0309
     30 C         140.4182  145.1580  160.3736 C.ar    1  UNL1        0.1402
     31 F         139.8809  146.0807  159.3201 F       1  UNL1       -0.2042
     32 C         141.2421  143.9681  159.9794 C.ar    1  UNL1        0.0309
     33 C         141.7793  143.0454  161.0329 C.ar    1  UNL1        0.0169
@<TRIPOS>BOND
     1     1     2    1
     2     2     3    1
     3     2     4    1
     4     4     5   ar
     5     5     6   ar
     6     6    14    1
     7    14    15   ar
     8    15    16   ar
     9    16    17   ar
    10    17    18    1
    11    17    19   ar
    12    19    20   ar
    13     6     7   ar
    14     7    25    1
    15    25    27    1
    16    27    28   ar
    17    28    29   ar
    18    29    30   ar
    19    30    31    1
    20    30    32   ar
    21    32    33   ar
    22     7     8   ar
    23     8     9    1
    24     9    10    1
    25    10    11    1
    26    11    12   am
    27    12    13    2
    28    12    21    1
    29    21    22    1
    30    11     2    1
    31     8     4   ar
    32    20    14   ar
    33    33    27   ar
    34    25    26    1
    35    22    23    1
    36    22    24    1
@<TRIPOS>MOLECULE
*****
 33 36 0 0 0
SMALL
GASTEIGER

@<TRIPOS>ATOM
      1 C         142.9603  142.5306  168.8122 C.3     1  UNL1        0.0276
      2 C         142.3245  141.6938  167.7419 C.3     1  UNL1        0.1109
      3 C         143.4804  142.2639  166.9745 C.3     1  UNL1        0.0276
      4 C         142.0900  141.0550  166.4052 C.ar    1  UNL1        0.1375
      5 N         142.8361  141.1414  165.1068 N.ar    1  UNL1       -0.2280
      6 C         142.1278  140.2765  164.1066 C.ar    1  UNL1        0.1125
      7 C         140.9439  139.6556  164.7869 C.ar    1  UNL1        0.1318
      8 N         140.9205  140.1367  166.2075 N.ar    1  UNL1       -0.3006
      9 C         139.9855  139.8572  167.3466 C.3     1  UNL1        0.1299
     10 C         140.2199  140.4960  168.6833 C.3     1  UNL1        0.1182
     11 N         141.3894  141.4143  168.8810 N.am    1  UNL1       -0.2732
     12 C         141.6238  142.0531  170.2178 C.2     1  UNL1        0.2418
     13 O         142.7933  142.9714  170.4155 O.2     1  UNL1       -0.2734
     14 C         142.5323  140.0691  162.6772 C.ar    1  UNL1        0.0205
     15 C         143.4016  138.9047  162.3052 C.ar    1  UNL1        0.0039
     16 C         143.8062  138.6972  160.8758 C.ar    1  UNL1        0.0297
     17 C         143.3414  139.6541  159.8183 C.ar    1  UNL1        0.1401
     18 F         143.7459  139.4466  158.3889 F       1  UNL1       -0.2042
     19 C         142.4721  140.8185  160.1903 C.ar    1  UNL1        0.0297
     20 C         142.0676  141.0260  161.6197 C.ar    1  UNL1        0.0039
     21 C         140.6887  141.7737  171.3569 C.3     1  UNL1        0.1517
     22 N         140.7453  140.4537  172.0672 N.3     1  UNL1       -0.3135
     23 H         140.4622  139.7111  171.4278 H       1  UNL1        0.1193
     24 H         140.1144  140.4714  172.8684 H       1  UNL1        0.1193
     25 N         139.9567  138.7182  164.1572 N.pl3   1  UNL1       -0.2980
     26 H         139.7338  137.8677  164.6002 H       1  UNL1        0.1536
     27 C         139.3089  139.0765  162.8527 C.ar    1  UNL1        0.0495
     28 C         138.3978  140.2653  162.7692 C.ar    1  UNL1        0.0169
     29 C         137.7500  140.6237  161.4647 C.ar    1  UNL1        0.0309
     30 C         138.0132  139.7933  160.2435 C.ar    1  UNL1        0.1402
     31 F         137.3654  140.1517  158.9390 F       1  UNL1       -0.2042
     32 C         138.9242  138.6045  160.3270 C.ar    1  UNL1        0.0309
     33 C         139.5720  138.2461  161.6315 C.ar    1  UNL1        0.0169
@<TRIPOS>BOND
     1     1     2    1
     2     2     3    1
     3     2     4    1
     4     4     5   ar
     5     5     6   ar
     6     6    14    1
     7    14    15   ar
     8    15    16   ar
     9    16    17   ar
    10    17    18    1
    11    17    19   ar
    12    19    20   ar
    13     6     7   ar
    14     7    25    1
    15    25    27    1
    16    27    28   ar
    17    28    29   ar
    18    29    30   ar
    19    30    31    1
    20    30    32   ar
    21    32    33   ar
    22     7     8   ar
    23     8     9    1
    24     9    10    1
    25    10    11    1
    26    11    12   am
    27    12    13    2
    28    12    21    1
    29    21    22    1
    30    11     2    1
    31     8     4   ar
    32    20    14   ar
    33    33    27   ar
    34    25    26    1
    35    22    23    1
    36    22    24    1
@<TRIPOS>MOLECULE
*****
 33 36 0 0 0
SMALL
GASTEIGER

@<TRIPOS>ATOM
      1 C         139.2720  139.8727  168.3234 C.3     1  UNL1        0.0276
      2 C         140.2502  140.2620  167.2548 C.3     1  UNL1        0.1109
      3 C         139.5494  139.1285  166.5661 C.3     1  UNL1        0.0276
      4 C         140.9849  140.2576  165.9471 C.ar    1  UNL1        0.1375
      5 N         140.8515  139.4000  164.7237 N.ar    1  UNL1       -0.2280
      6 C         141.8648  139.8638  163.7197 C.ar    1  UNL1        0.1125
      7 C         142.6245  141.0081  164.3226 C.ar    1  UNL1        0.1318
      8 N         142.0807  141.2515  165.6992 N.ar    1  UNL1       -0.3006
      9 C         142.4417  142.2497  166.7589 C.3     1  UNL1        0.1299
     10 C         141.7070  142.2541  168.0666 C.3     1  UNL1        0.1182
     11 N         140.6112  141.2602  168.3146 N.am    1  UNL1       -0.2732
     12 C         139.8764  141.2646  169.6223 C.2     1  UNL1        0.2418
     13 O         138.7807  140.2707  169.8703 O.2     1  UNL1       -0.2734
     14 C         142.0806  139.2849  162.3528 C.ar    1  UNL1        0.0205
     15 C         143.1810  138.2917  162.1241 C.ar    1  UNL1        0.0039
     16 C         143.3968  137.7128  160.7572 C.ar    1  UNL1        0.0297
     17 C         142.5121  138.1273  159.6190 C.ar    1  UNL1        0.1401
     18 F         142.7278  137.5484  158.2521 F       1  UNL1       -0.2042
     19 C         141.4116  139.1205  159.8477 C.ar    1  UNL1        0.0297
     20 C         141.1958  139.6994  161.2146 C.ar    1  UNL1        0.0039
     21 C         140.2375  142.2628  170.6821 C.3     1  UNL1        0.1517
     22 N         139.2006  143.2152  171.1998 N.3     1  UNL1       -0.3135
     23 H         138.9212  143.8520  170.4536 H       1  UNL1        0.1193
     24 H         139.5885  143.7508  171.9764 H       1  UNL1        0.1193
     25 N         143.7333  141.7745  163.6644 N.pl3   1  UNL1       -0.2980
     26 H         144.5654  141.9576  164.1577 H       1  UNL1        0.1536
     27 C         143.5744  142.2619  162.2548 C.ar    1  UNL1        0.0495
     28 C         142.4522  143.1940  161.9055 C.ar    1  UNL1        0.0169
     29 C         142.2933  143.6815  160.4958 C.ar    1  UNL1        0.0309
     30 C         143.2565  143.2367  159.4354 C.ar    1  UNL1        0.1402
     31 F         143.0975  143.7241  158.0258 F       1  UNL1       -0.2042
     32 C         144.3785  142.3046  159.7847 C.ar    1  UNL1        0.0309
     33 C         144.5375  141.8171  161.1943 C.ar    1  UNL1        0.0169
@<TRIPOS>BOND
     1     1     2    1
     2     2     3    1
     3     2     4    1
     4     4     5   ar
     5     5     6   ar
     6     6    14    1
     7    14    15   ar
     8    15    16   ar
     9    16    17   ar
    10    17    18    1
    11    17    19   ar
    12    19    20   ar
    13     6     7   ar
    14     7    25    1
    15    25    27    1
    16    27    28   ar
    17    28    29   ar
    18    29    30   ar
    19    30    31    1
    20    30    32   ar
    21    32    33   ar
    22     7     8   ar
    23     8     9    1
    24     9    10    1
    25    10    11    1
    26    11    12   am
    27    12    13    2
    28    12    21    1
    29    21    22    1
    30    11     2    1
    31     8     4   ar
    32    20    14   ar
    33    33    27   ar
    34    25    26    1
    35    22    23    1
    36    22    24    1
@<TRIPOS>MOLECULE
*****
 33 36 0 0 0
SMALL
GASTEIGER

@<TRIPOS>ATOM
      1 C         139.3063  139.8549  169.1376 C.3     1  UNL1        0.0276
      2 C         139.9571  140.2181  167.8358 C.3     1  UNL1        0.1109
      3 C         138.6403  139.7037  167.3342 C.3     1  UNL1        0.0276
      4 C         140.1506  140.4026  166.3599 C.ar    1  UNL1        0.1375
      5 N         139.2611  140.1137  165.1871 N.ar    1  UNL1       -0.2280
      6 C         139.9955  140.5079  163.9400 C.ar    1  UNL1        0.1125
      7 C         141.3389  141.0405  164.3421 C.ar    1  UNL1        0.1318
      8 N         141.4348  140.9754  165.8376 N.ar    1  UNL1       -0.3006
      9 C         142.5255  141.3636  166.7913 C.3     1  UNL1        0.1299
     10 C         142.3320  141.1791  168.2672 C.3     1  UNL1        0.1182
     11 N         141.0478  140.6063  168.7895 N.am    1  UNL1       -0.2732
     12 C         140.8543  140.4218  170.2655 C.2     1  UNL1        0.2418
     13 O         139.5702  139.8490  170.7878 O.2     1  UNL1       -0.2734
     14 C         139.4774  140.3903  162.5372 C.ar    1  UNL1        0.0205
     15 C         138.9057  141.5922  161.8456 C.ar    1  UNL1        0.0039
     16 C         138.3877  141.4746  160.4428 C.ar    1  UNL1        0.0297
     17 C         138.4414  140.1550  159.7317 C.ar    1  UNL1        0.1401
     18 F         137.9233  140.0374  158.3289 F       1  UNL1       -0.2042
     19 C         139.0131  138.9531  160.4233 C.ar    1  UNL1        0.0297
     20 C         139.5312  139.0707  161.8261 C.ar    1  UNL1        0.0039
     21 C         141.9451  140.8101  171.2192 C.3     1  UNL1        0.1517
     22 N         141.9723  142.1905  171.8057 N.3     1  UNL1       -0.3135
     23 H         142.1426  142.8711  171.0654 H       1  UNL1        0.1193
     24 H         142.7169  142.2501  172.5003 H       1  UNL1        0.1193
     25 N         142.4002  141.5489  163.4119 N.pl3   1  UNL1       -0.2980
     26 H         142.9281  142.3436  163.6548 H       1  UNL1        0.1536
     27 C         142.6571  140.8466  162.1117 C.ar    1  UNL1        0.0495
     28 C         143.2115  139.4527  162.1089 C.ar    1  UNL1        0.0169
     29 C         143.4685  138.7503  160.8087 C.ar    1  UNL1        0.0309
     30 C         143.1712  139.4418  159.5112 C.ar    1  UNL1        0.1402
     31 F         143.4282  138.7393  158.2110 F       1  UNL1       -0.2042
     32 C         142.6168  140.8355  159.5140 C.ar    1  UNL1        0.0309
     33 C         142.3598  141.5379  160.8142 C.ar    1  UNL1        0.0169
@<TRIPOS>BOND
     1     1     2    1
     2     2     3    1
     3     2     4    1
     4     4     5   ar
     5     5     6   ar
     6     6    14    1
     7    14    15   ar
     8    15    16   ar
     9    16    17   ar
    10    17    18    1
    11    17    19   ar
    12    19    20   ar
    13     6     7   ar
    14     7    25    1
    15    25    27    1
    16    27    28   ar
    17    28    29   ar
    18    29    30   ar
    19    30    31    1
    20    30    32   ar
    21    32    33   ar
    22     7     8   ar
    23     8     9    1
    24     9    10    1
    25    10    11    1
    26    11    12   am
    27    12    13    2
    28    12    21    1
    29    21    22    1
    30    11     2    1
    31     8     4   ar
    32    20    14   ar
    33    33    27   ar
    34    25    26    1
    35    22    23    1
    36    22    24    1
@<TRIPOS>MOLECULE
*****
 33 36 0 0 0
SMALL
GASTEIGER

@<TRIPOS>ATOM
      1 C         139.3423  139.7661  168.1956 C.3     1  UNL1        0.0276
      2 C         139.6292  140.5011  166.9199 C.3     1  UNL1        0.1109
      3 C         139.1194  139.2043  166.3644 C.3     1  UNL1        0.0276
      4 C         139.7391  140.7857  165.4513 C.ar    1  UNL1        0.1375
      5 N         139.4135  139.9603  164.2418 N.ar    1  UNL1       -0.2280
      6 C         139.7323  140.7763  163.0242 C.ar    1  UNL1        0.1125
      7 C         140.2549  142.1060  163.4812 C.ar    1  UNL1        0.1318
      8 N         140.2591  142.1118  164.9811 N.ar    1  UNL1       -0.3006
      9 C         140.6692  143.1533  165.9796 C.3     1  UNL1        0.1299
     10 C         140.5593  142.8687  167.4482 C.3     1  UNL1        0.1182
     11 N         140.0393  141.5426  167.9184 N.am    1  UNL1       -0.2732
     12 C         139.9294  141.2580  169.3871 C.2     1  UNL1        0.2418
     13 O         139.4094  139.9319  169.8572 O.2     1  UNL1       -0.2734
     14 C         139.5590  140.3393  161.5998 C.ar    1  UNL1        0.0205
     15 C         138.2683  140.6085  160.8845 C.ar    1  UNL1        0.0039
     16 C         138.0950  140.1715  159.4600 C.ar    1  UNL1        0.0297
     17 C         139.2123  139.4653  158.7509 C.ar    1  UNL1        0.1401
     18 F         139.0389  139.0283  157.3265 F       1  UNL1       -0.2042
     19 C         140.5029  139.1961  159.4663 C.ar    1  UNL1        0.0297
     20 C         140.6763  139.6331  160.8907 C.ar    1  UNL1        0.0039
     21 C         140.3396  142.2995  170.3856 C.3     1  UNL1        0.1517
     22 N         140.4194  141.9515  171.8425 N.3     1  UNL1       -0.3135
     23 H         139.4856  141.7377  172.1927 H       1  UNL1        0.1193
     24 H         140.8040  142.7417  172.3602 H       1  UNL1        0.1193
     25 N         140.6959  143.2322  162.5939 N.pl3   1  UNL1       -0.2980
     26 H         140.2423  144.1045  162.6435 H       1  UNL1        0.1536
     27 C         141.8280  143.0293  161.6310 C.ar    1  UNL1        0.0495
     28 C         141.6327  143.3183  160.1721 C.ar    1  UNL1        0.0169
     29 C         142.7647  143.1154  159.2091 C.ar    1  UNL1        0.0309
     30 C         144.0922  142.6236  159.7052 C.ar    1  UNL1        0.1402
     31 F         145.2242  142.4207  158.7422 F       1  UNL1       -0.2042
     32 C         144.2875  142.3346  161.1640 C.ar    1  UNL1        0.0309
     33 C         143.1554  142.5374  162.1269 C.ar    1  UNL1        0.0169
@<TRIPOS>BOND
     1     1     2    1
     2     2     3    1
     3     2     4    1
     4     4     5   ar
     5     5     6   ar
     6     6    14    1
     7    14    15   ar
     8    15    16   ar
     9    16    17   ar
    10    17    18    1
    11    17    19   ar
    12    19    20   ar
    13     6     7   ar
    14     7    25    1
    15    25    27    1
    16    27    28   ar
    17    28    29   ar
    18    29    30   ar
    19    30    31    1
    20    30    32   ar
    21    32    33   ar
    22     7     8   ar
    23     8     9    1
    24     9    10    1
    25    10    11    1
    26    11    12   am
    27    12    13    2
    28    12    21    1
    29    21    22    1
    30    11     2    1
    31     8     4   ar
    32    20    14   ar
    33    33    27   ar
    34    25    26    1
    35    22    23    1
    36    22    24    1
