@<TRIPOS>MOLECULE
*****
 29 30 0 0 0
SMALL
GASTEIGER

@<TRIPOS>ATOM
      1 C         141.3467  143.0688  164.4400 C.ar    1  UNL1       -0.0185
      2 C         142.7418  142.6491  164.7972 C.ar    1  UNL1       -0.0041
      3 C         143.0761  142.2853  166.2134 C.ar    1  UNL1        0.0057
      4 C         142.0154  142.3411  167.2725 C.ar    1  UNL1        0.0696
      5 C         140.6204  142.7608  166.9153 C.ar    1  UNL1        0.0095
      6 C         140.2860  143.1246  165.4991 C.ar    1  UNL1        0.0677
      7 C         139.5244  143.4702  157.8242 C.3     1  UNL1        0.0948
      8 C         140.0094  144.5242  158.7749 C.2     1  UNL1        0.2261
      9 O         140.1600  145.9421  158.3093 O.2     1  UNL1       -0.2749
     10 N         140.3437  144.1604  160.1912 N.am    1  UNL1       -0.2795
     11 C         140.1931  142.7425  160.6568 C.3     1  UNL1        0.0937
     12 C         140.5274  142.3786  162.0731 C.3     1  UNL1        0.0259
     13 C         141.0124  143.4327  163.0237 C.3     1  UNL1        0.0257
     14 C         141.1630  144.8505  162.5581 C.3     1  UNL1        0.0259
     15 C         140.8287  145.2144  161.1418 C.3     1  UNL1        0.0937
     16 C         142.3498  141.9773  168.6888 C.2     1  UNL1        0.3078
     17 O         143.4265  142.7224  169.4204 O.2     1  UNL1       -0.2516
     18 N         141.6073  140.8683  169.3735 N.am    1  UNL1       -0.1708
     19 H         140.9006  140.3792  168.8933 H       1  UNL1        0.2545
     20 C         141.9417  140.5044  170.7898 C.2     1  UNL1        0.3751
     21 N         140.9268  140.7066  171.8756 N.pl3   1  UNL1       -0.1313
     22 N         143.2910  139.9384  171.1202 N.pl3   1  UNL1       -0.2906
     23 H         140.0412  141.0781  171.6588 H       1  UNL1        0.3060
     24 H         143.9571  139.8057  170.4075 H       1  UNL1        0.2545
     25 H         143.5104  139.6996  172.0497 H       1  UNL1        0.2545
     26 C         138.8909  143.5444  165.1419 C.3     1  UNL1        0.4183
     27 F         137.4958  143.9641  164.7848 F       1  UNL1       -0.1659
     28 F         138.5167  142.1093  164.9170 F       1  UNL1       -0.1659
     29 F         139.2650  144.9794  165.3668 F       1  UNL1       -0.1659
@<TRIPOS>BOND
     1     7     8    1
     2     8     9    2
     3     8    10   am
     4    10    11    1
     5    11    12    1
     6    12    13    1
     7    13     1    1
     8     1     2   ar
     9     2     3   ar
    10     3     4   ar
    11     4    16    1
    12    16    17    2
    13    16    18   am
    14    18    20    1
    15    20    21    2
    16    20    22    1
    17     4     5   ar
    18     5     6   ar
    19     6    26    1
    20    26    27    1
    21    26    28    1
    22    26    29    1
    23    13    14    1
    24    14    15    1
    25    15    10    1
    26     6     1   ar
    27    18    19    1
    28    21    23    1
    29    22    24    1
    30    22    25    1
@<TRIPOS>MOLECULE
*****
 29 30 0 0 0
SMALL
GASTEIGER

@<TRIPOS>ATOM
      1 C         141.5058  143.0732  164.4678 C.ar    1  UNL1       -0.0185
      2 C         140.4235  142.9404  165.4978 C.ar    1  UNL1       -0.0041
      3 C         140.7712  142.5587  166.9062 C.ar    1  UNL1        0.0057
      4 C         142.2012  142.3098  167.2845 C.ar    1  UNL1        0.0696
      5 C         143.2834  142.4426  166.2544 C.ar    1  UNL1        0.0095
      6 C         142.9357  142.8242  164.8461 C.ar    1  UNL1        0.0677
      7 C         139.7731  143.5376  157.8321 C.3     1  UNL1        0.0948
      8 C         140.1149  144.5998  158.8344 C.2     1  UNL1        0.2261
      9 O         140.1090  146.0438  158.4284 O.2     1  UNL1       -0.2749
     10 N         140.4626  144.2182  160.2428 N.am    1  UNL1       -0.2795
     11 C         140.4686  142.7742  160.6488 C.3     1  UNL1        0.0937
     12 C         140.8163  142.3925  162.0571 C.3     1  UNL1        0.0259
     13 C         141.1580  143.4548  163.0595 C.3     1  UNL1        0.0257
     14 C         141.1521  144.8988  162.6534 C.3     1  UNL1        0.0259
     15 C         140.8044  145.2805  161.2451 C.3     1  UNL1        0.0937
     16 C         142.5489  141.9281  168.6928 C.2     1  UNL1        0.3078
     17 O         143.7360  142.5496  169.3670 O.2     1  UNL1       -0.2516
     18 N         141.7095  140.9250  169.4270 N.am    1  UNL1       -0.1708
     19 H         140.9304  140.5171  168.9845 H       1  UNL1        0.2545
     20 C         142.0572  140.5433  170.8354 C.2     1  UNL1        0.3751
     21 N         141.0590  140.7479  171.9361 N.pl3   1  UNL1       -0.1313
     22 N         143.4033  139.9571  171.1430 N.pl3   1  UNL1       -0.2906
     23 H         140.1756  141.1326  171.7342 H       1  UNL1        0.3060
     24 H         144.0585  139.8228  170.4205 H       1  UNL1        0.2545
     25 H         143.6315  139.7066  172.0673 H       1  UNL1        0.2545
     26 C         144.0181  142.9570  163.8160 C.3     1  UNL1        0.4183
     27 F         145.1004  143.0897  162.7860 F       1  UNL1       -0.1659
     28 F         143.8520  141.5106  163.4550 F       1  UNL1       -0.1659
     29 F         144.1842  144.4033  164.1771 F       1  UNL1       -0.1659
@<TRIPOS>BOND
     1     7     8    1
     2     8     9    2
     3     8    10   am
     4    10    11    1
     5    11    12    1
     6    12    13    1
     7    13     1    1
     8     1     2   ar
     9     2     3   ar
    10     3     4   ar
    11     4    16    1
    12    16    17    2
    13    16    18   am
    14    18    20    1
    15    20    21    2
    16    20    22    1
    17     4     5   ar
    18     5     6   ar
    19     6    26    1
    20    26    27    1
    21    26    28    1
    22    26    29    1
    23    13    14    1
    24    14    15    1
    25    15    10    1
    26     6     1   ar
    27    18    19    1
    28    21    23    1
    29    22    24    1
    30    22    25    1
@<TRIPOS>MOLECULE
*****
 29 30 0 0 0
SMALL
GASTEIGER

@<TRIPOS>ATOM
      1 C         141.0577  143.0693  164.7133 C.ar    1  UNL1       -0.0185
      2 C         142.0907  144.0719  164.2922 C.ar    1  UNL1       -0.0041
      3 C         141.9405  144.8019  162.9904 C.ar    1  UNL1        0.0057
      4 C         140.7573  144.5292  162.1098 C.ar    1  UNL1        0.0696
      5 C         139.7242  143.5265  162.5310 C.ar    1  UNL1        0.0095
      6 C         139.8744  142.7966  163.8327 C.ar    1  UNL1        0.0677
      7 C         142.5287  138.9302  170.0005 C.3     1  UNL1        0.0948
      8 C         141.6585  140.1493  169.9203 C.2     1  UNL1        0.2261
      9 O         140.9386  140.6385  171.1419 O.2     1  UNL1       -0.2749
     10 N         141.5083  140.8793  168.6186 N.am    1  UNL1       -0.2795
     11 C         142.2283  140.3902  167.3970 C.3     1  UNL1        0.0937
     12 C         142.0781  141.1202  166.0952 C.3     1  UNL1        0.0259
     13 C         141.2079  142.3393  166.0151 C.3     1  UNL1        0.0257
     14 C         140.4879  142.8284  167.2367 C.3     1  UNL1        0.0259
     15 C         140.6382  142.0985  168.5384 C.3     1  UNL1        0.0937
     16 C         140.6071  145.2592  160.8080 C.2     1  UNL1        0.3078
     17 O         139.5090  146.2663  160.6353 O.2     1  UNL1       -0.2516
     18 N         141.5549  144.9821  159.6790 N.am    1  UNL1       -0.1708
     19 H         142.2756  144.3211  159.7924 H       1  UNL1        0.2545
     20 C         141.4047  145.7120  158.3773 C.2     1  UNL1        0.3751
     21 N         140.0562  145.8204  157.7295 N.pl3   1  UNL1       -0.1313
     22 N         142.6031  146.3337  157.7234 N.pl3   1  UNL1       -0.2906
     23 H         139.2697  145.4125  158.1586 H       1  UNL1        0.3060
     24 H         143.4882  146.2625  158.1486 H       1  UNL1        0.2545
     25 H         142.5045  146.8128  156.8690 H       1  UNL1        0.2545
     26 C         138.8413  141.7938  164.2538 C.3     1  UNL1        0.4183
     27 F         137.8082  140.7912  164.6750 F       1  UNL1       -0.1659
     28 F         139.6886  140.6876  163.6985 F       1  UNL1       -0.1659
     29 F         137.9941  142.9001  164.8092 F       1  UNL1       -0.1659
@<TRIPOS>BOND
     1     7     8    1
     2     8     9    2
     3     8    10   am
     4    10    11    1
     5    11    12    1
     6    12    13    1
     7    13     1    1
     8     1     2   ar
     9     2     3   ar
    10     3     4   ar
    11     4    16    1
    12    16    17    2
    13    16    18   am
    14    18    20    1
    15    20    21    2
    16    20    22    1
    17     4     5   ar
    18     5     6   ar
    19     6    26    1
    20    26    27    1
    21    26    28    1
    22    26    29    1
    23    13    14    1
    24    14    15    1
    25    15    10    1
    26     6     1   ar
    27    18    19    1
    28    21    23    1
    29    22    24    1
    30    22    25    1
@<TRIPOS>MOLECULE
*****
 29 30 0 0 0
SMALL
GASTEIGER

@<TRIPOS>ATOM
      1 C         140.2463  142.8001  164.4033 C.ar    1  UNL1       -0.0185
      2 C         141.2975  142.3036  163.4555 C.ar    1  UNL1       -0.0041
      3 C         141.3271  142.8011  162.0407 C.ar    1  UNL1        0.0057
      4 C         140.3054  143.7951  161.5738 C.ar    1  UNL1        0.0696
      5 C         139.2542  144.2916  162.5216 C.ar    1  UNL1        0.0095
      6 C         139.2246  143.7941  163.9364 C.ar    1  UNL1        0.0677
      7 C         140.7404  141.6302  171.1589 C.3     1  UNL1        0.0948
      8 C         140.1282  140.8099  170.0624 C.2     1  UNL1        0.2261
      9 O         139.4866  139.4920  170.3807 O.2     1  UNL1       -0.2749
     10 N         140.1578  141.3074  168.6477 N.am    1  UNL1       -0.2795
     11 C         140.7994  142.6253  168.3293 C.3     1  UNL1        0.0937
     12 C         140.8289  143.1229  166.9146 C.3     1  UNL1        0.0259
     13 C         140.2168  142.3025  165.8181 C.3     1  UNL1        0.0257
     14 C         139.5751  140.9846  166.1364 C.3     1  UNL1        0.0259
     15 C         139.5456  140.4871  167.5512 C.3     1  UNL1        0.0937
     16 C         140.3349  144.2927  160.1590 C.2     1  UNL1        0.3078
     17 O         139.3446  143.7719  159.1600 O.2     1  UNL1       -0.2516
     18 N         141.3547  145.3110  159.7432 N.am    1  UNL1       -0.1708
     19 H         142.0047  145.6528  160.3989 H       1  UNL1        0.2545
     20 C         141.3842  145.8085  158.3285 C.2     1  UNL1        0.3751
     21 N         142.6930  145.9444  157.6084 N.pl3   1  UNL1       -0.1313
     22 N         140.1049  146.1702  157.6338 N.pl3   1  UNL1       -0.2906
     23 H         143.5327  145.7070  158.0643 H       1  UNL1        0.3060
     24 H         139.2459  146.0810  158.1064 H       1  UNL1        0.2545
     25 H         140.1242  146.4968  156.7052 H       1  UNL1        0.2545
     26 C         138.1734  144.2906  164.8843 C.3     1  UNL1        0.4183
     27 F         137.1222  144.7871  165.8321 F       1  UNL1       -0.1659
     28 F         137.2952  143.1311  164.5177 F       1  UNL1       -0.1659
     29 F         139.0515  145.4500  165.2508 F       1  UNL1       -0.1659
@<TRIPOS>BOND
     1     7     8    1
     2     8     9    2
     3     8    10   am
     4    10    11    1
     5    11    12    1
     6    12    13    1
     7    13     1    1
     8     1     2   ar
     9     2     3   ar
    10     3     4   ar
    11     4    16    1
    12    16    17    2
    13    16    18   am
    14    18    20    1
    15    20    21    2
    16    20    22    1
    17     4     5   ar
    18     5     6   ar
    19     6    26    1
    20    26    27    1
    21    26    28    1
    22    26    29    1
    23    13    14    1
    24    14    15    1
    25    15    10    1
    26     6     1   ar
    27    18    19    1
    28    21    23    1
    29    22    24    1
    30    22    25    1
@<TRIPOS>MOLECULE
*****
 29 30 0 0 0
SMALL
GASTEIGER

@<TRIPOS>ATOM
      1 C         141.4470  139.8234  164.5899 C.ar    1  UNL1       -0.0185
      2 C         140.0218  140.0586  164.9942 C.ar    1  UNL1       -0.0041
      3 C         139.6880  140.3584  166.4255 C.ar    1  UNL1        0.0057
      4 C         140.7793  140.4229  167.4525 C.ar    1  UNL1        0.0696
      5 C         142.2045  140.1877  167.0482 C.ar    1  UNL1        0.0095
      6 C         142.5383  139.8879  165.6169 C.ar    1  UNL1        0.0677
      7 C         142.9754  139.7468  157.8885 C.3     1  UNL1        0.0948
      8 C         142.7823  138.6243  158.8646 C.2     1  UNL1        0.2261
      9 O         142.9229  137.2021  158.4092 O.2     1  UNL1       -0.2749
     10 N         142.4484  138.9241  160.2959 N.am    1  UNL1       -0.2795
     11 C         142.3078  140.3463  160.7512 C.3     1  UNL1        0.0937
     12 C         141.9740  140.6461  162.1825 C.3     1  UNL1        0.0259
     13 C         141.7808  139.5236  163.1585 C.3     1  UNL1        0.0257
     14 C         141.9214  138.1014  162.7032 C.3     1  UNL1        0.0259
     15 C         142.2552  137.8016  161.2719 C.3     1  UNL1        0.0937
     16 C         140.4455  140.7227  168.8839 C.2     1  UNL1        0.3078
     17 O         140.0516  139.6111  169.8108 O.2     1  UNL1       -0.2516
     18 N         140.5055  142.1340  169.3883 N.am    1  UNL1       -0.1708
     19 H         140.7640  142.8636  168.7799 H       1  UNL1        0.2545
     20 C         140.1717  142.4338  170.8196 C.2     1  UNL1        0.3751
     21 N         140.8584  141.6845  171.9227 N.pl3   1  UNL1       -0.1313
     22 N         139.1510  143.4829  171.1478 N.pl3   1  UNL1       -0.2906
     23 H         141.5283  140.9960  171.7073 H       1  UNL1        0.3060
     24 H         138.7002  143.9747  170.4238 H       1  UNL1        0.2545
     25 H         138.9319  143.6797  172.0872 H       1  UNL1        0.2545
     26 C         143.9635  139.6527  165.2126 C.3     1  UNL1        0.4183
     27 F         145.3887  139.4175  164.8083 F       1  UNL1       -0.1659
     28 F         143.8089  138.1921  165.5172 F       1  UNL1       -0.1659
     29 F         144.1182  141.1132  164.9079 F       1  UNL1       -0.1659
@<TRIPOS>BOND
     1     7     8    1
     2     8     9    2
     3     8    10   am
     4    10    11    1
     5    11    12    1
     6    12    13    1
     7    13     1    1
     8     1     2   ar
     9     2     3   ar
    10     3     4   ar
    11     4    16    1
    12    16    17    2
    13    16    18   am
    14    18    20    1
    15    20    21    2
    16    20    22    1
    17     4     5   ar
    18     5     6   ar
    19     6    26    1
    20    26    27    1
    21    26    28    1
    22    26    29    1
    23    13    14    1
    24    14    15    1
    25    15    10    1
    26     6     1   ar
    27    18    19    1
    28    21    23    1
    29    22    24    1
    30    22    25    1
@<TRIPOS>MOLECULE
*****
 29 30 0 0 0
SMALL
GASTEIGER

@<TRIPOS>ATOM
      1 C         140.7553  139.4180  163.5785 C.ar    1  UNL1       -0.0185
      2 C         141.7062  139.8972  164.6349 C.ar    1  UNL1       -0.0041
      3 C         141.2466  140.0212  166.0574 C.ar    1  UNL1        0.0057
      4 C         139.8360  139.6659  166.4234 C.ar    1  UNL1        0.0696
      5 C         138.8851  139.1867  165.3670 C.ar    1  UNL1        0.0095
      6 C         139.3447  139.0627  163.9446 C.ar    1  UNL1        0.0677
      7 C         142.3872  140.0587  156.9320 C.3     1  UNL1        0.0948
      8 C         142.5939  138.9221  157.8887 C.2     1  UNL1        0.2261
      9 O         143.2602  137.6615  157.4230 O.2     1  UNL1       -0.2749
     10 N         142.1342  139.0461  159.3112 N.am    1  UNL1       -0.2795
     11 C         141.4679  140.3066  159.7769 C.3     1  UNL1        0.0937
     12 C         141.0082  140.4306  161.1993 C.3     1  UNL1        0.0259
     13 C         141.2149  139.2940  162.1561 C.3     1  UNL1        0.0257
     14 C         141.8813  138.0335  161.6904 C.3     1  UNL1        0.0259
     15 C         142.3409  137.9095  160.2679 C.3     1  UNL1        0.0937
     16 C         139.3764  139.7899  167.8459 C.2     1  UNL1        0.3078
     17 O         138.1355  139.0785  168.2978 O.2     1  UNL1       -0.2516
     18 N         140.1575  140.6252  168.8164 N.am    1  UNL1       -0.1708
     19 H         140.9719  141.0921  168.5198 H       1  UNL1        0.2545
     20 C         139.6979  140.7492  170.2388 C.2     1  UNL1        0.3751
     21 N         139.6726  139.5406  171.1269 N.pl3   1  UNL1       -0.1313
     22 N         139.2635  142.0818  170.7732 N.pl3   1  UNL1       -0.2906
     23 H         139.9577  138.6660  170.7761 H       1  UNL1        0.3060
     24 H         139.2802  142.8751  170.1904 H       1  UNL1        0.2545
     25 H         138.9619  142.1632  171.7068 H       1  UNL1        0.2545
     26 C         138.3937  138.5835  162.8881 C.3     1  UNL1        0.4183
     27 F         137.4427  138.1043  161.8318 F       1  UNL1       -0.1659
     28 F         138.8636  137.1754  163.1038 F       1  UNL1       -0.1659
     29 F         137.9238  139.9915  162.6725 F       1  UNL1       -0.1659
@<TRIPOS>BOND
     1     7     8    1
     2     8     9    2
     3     8    10   am
     4    10    11    1
     5    11    12    1
     6    12    13    1
     7    13     1    1
     8     1     2   ar
     9     2     3   ar
    10     3     4   ar
    11     4    16    1
    12    16    17    2
    13    16    18   am
    14    18    20    1
    15    20    21    2
    16    20    22    1
    17     4     5   ar
    18     5     6   ar
    19     6    26    1
    20    26    27    1
    21    26    28    1
    22    26    29    1
    23    13    14    1
    24    14    15    1
    25    15    10    1
    26     6     1   ar
    27    18    19    1
    28    21    23    1
    29    22    24    1
    30    22    25    1
@<TRIPOS>MOLECULE
*****
 29 30 0 0 0
SMALL
GASTEIGER

@<TRIPOS>ATOM
      1 C         140.0363  141.4225  164.2755 C.ar    1  UNL1       -0.0185
      2 C         140.4048  140.0242  164.6740 C.ar    1  UNL1       -0.0041
      3 C         140.5957  139.6826  166.1220 C.ar    1  UNL1        0.0057
      4 C         140.4182  140.7394  167.1716 C.ar    1  UNL1        0.0696
      5 C         140.0498  142.1377  166.7731 C.ar    1  UNL1        0.0095
      6 C         139.8588  142.4793  165.3251 C.ar    1  UNL1        0.0677
      7 C         137.9389  142.5729  157.8313 C.3     1  UNL1        0.0948
      8 C         139.2724  142.7887  158.4833 C.2     1  UNL1        0.2261
      9 O         140.4150  143.3461  157.6871 O.2     1  UNL1       -0.2749
     10 N         139.4634  142.4472  159.9313 N.am    1  UNL1       -0.2795
     11 C         138.3208  141.8898  160.7275 C.3     1  UNL1        0.0937
     12 C         138.5118  141.5483  162.1755 C.3     1  UNL1        0.0259
     13 C         139.8453  141.7641  162.8274 C.3     1  UNL1        0.0257
     14 C         140.9879  142.3214  162.0313 C.3     1  UNL1        0.0259
     15 C         140.7969  142.6630  160.5833 C.3     1  UNL1        0.0937
     16 C         140.6092  140.3978  168.6197 C.2     1  UNL1        0.3078
     17 O         139.5251  139.6838  169.3711 O.2     1  UNL1       -0.2516
     18 N         141.8843  140.7703  169.3163 N.am    1  UNL1       -0.1708
     19 H         142.5959  141.2389  168.8230 H       1  UNL1        0.2545
     20 C         142.0753  140.4287  170.7643 C.2     1  UNL1        0.3751
     21 N         140.9740  140.6908  171.7483 N.pl3   1  UNL1       -0.1313
     22 N         143.3678  139.8251  171.2284 N.pl3   1  UNL1       -0.2906
     23 H         140.1257  141.0870  171.4437 H       1  UNL1        0.3060
     24 H         144.0906  139.6531  170.5825 H       1  UNL1        0.2545
     25 H         143.4931  139.6009  172.1788 H       1  UNL1        0.2545
     26 C         139.4903  143.8777  164.9266 C.3     1  UNL1        0.4183
     27 F         139.1219  145.2761  164.5282 F       1  UNL1       -0.1659
     28 F         138.0370  143.5108  164.9826 F       1  UNL1       -0.1659
     29 F         140.9436  144.2447  164.8707 F       1  UNL1       -0.1659
@<TRIPOS>BOND
     1     7     8    1
     2     8     9    2
     3     8    10   am
     4    10    11    1
     5    11    12    1
     6    12    13    1
     7    13     1    1
     8     1     2   ar
     9     2     3   ar
    10     3     4   ar
    11     4    16    1
    12    16    17    2
    13    16    18   am
    14    18    20    1
    15    20    21    2
    16    20    22    1
    17     4     5   ar
    18     5     6   ar
    19     6    26    1
    20    26    27    1
    21    26    28    1
    22    26    29    1
    23    13    14    1
    24    14    15    1
    25    15    10    1
    26     6     1   ar
    27    18    19    1
    28    21    23    1
    29    22    24    1
    30    22    25    1
@<TRIPOS>MOLECULE
*****
 29 30 0 0 0
SMALL
GASTEIGER

@<TRIPOS>ATOM
      1 C         139.5498  139.6074  164.0855 C.ar    1  UNL1       -0.0185
      2 C         138.2520  139.6590  164.8357 C.ar    1  UNL1       -0.0041
      3 C         138.2540  139.7291  166.3340 C.ar    1  UNL1        0.0057
      4 C         139.5540  139.7476  167.0822 C.ar    1  UNL1        0.0696
      5 C         140.8518  139.6960  166.3320 C.ar    1  UNL1        0.0095
      6 C         140.8498  139.6259  164.8336 C.ar    1  UNL1        0.0677
      7 C         139.6638  140.5836  157.2822 C.3     1  UNL1        0.0948
      8 C         139.5415  139.3270  158.0920 C.2     1  UNL1        0.2261
      9 O         139.4172  138.0002  157.4035 O.2     1  UNL1       -0.2749
     10 N         139.5436  139.3971  159.5904 N.am    1  UNL1       -0.2795
     11 C         139.6680  140.7238  160.2790 C.3     1  UNL1        0.0937
     12 C         139.6700  140.7939  161.7773 C.3     1  UNL1        0.0259
     13 C         139.5478  139.5373  162.5871 C.3     1  UNL1        0.0257
     14 C         139.4234  138.2105  161.8985 C.3     1  UNL1        0.0259
     15 C         139.4214  138.1404  160.4002 C.3     1  UNL1        0.0937
     16 C         139.5561  139.8177  168.5806 C.2     1  UNL1        0.3078
     17 O         138.2615  139.7594  169.3359 O.2     1  UNL1       -0.2516
     18 N         140.8527  139.9461  169.3236 N.am    1  UNL1       -0.1708
     19 H         141.7024  139.9843  168.8278 H       1  UNL1        0.2545
     20 C         140.8548  140.0162  170.8219 C.2     1  UNL1        0.3751
     21 N         141.8941  140.8310  171.5332 N.pl3   1  UNL1       -0.1313
     22 N         139.8175  139.2715  171.6090 N.pl3   1  UNL1       -0.2906
     23 H         142.5749  141.3197  171.0166 H       1  UNL1        0.3060
     24 H         139.1353  138.7367  171.1422 H       1  UNL1        0.2545
     25 H         139.8188  139.3175  172.5925 H       1  UNL1        0.2545
     26 C         142.1477  139.5743  164.0834 C.3     1  UNL1        0.4183
     27 F         143.4456  139.5227  163.3333 F       1  UNL1       -0.1659
     28 F         142.1214  138.0756  164.1409 F       1  UNL1       -0.1659
     29 F         142.1741  141.0729  164.0260 F       1  UNL1       -0.1659
@<TRIPOS>BOND
     1     7     8    1
     2     8     9    2
     3     8    10   am
     4    10    11    1
     5    11    12    1
     6    12    13    1
     7    13     1    1
     8     1     2   ar
     9     2     3   ar
    10     3     4   ar
    11     4    16    1
    12    16    17    2
    13    16    18   am
    14    18    20    1
    15    20    21    2
    16    20    22    1
    17     4     5   ar
    18     5     6   ar
    19     6    26    1
    20    26    27    1
    21    26    28    1
    22    26    29    1
    23    13    14    1
    24    14    15    1
    25    15    10    1
    26     6     1   ar
    27    18    19    1
    28    21    23    1
    29    22    24    1
    30    22    25    1
@<TRIPOS>MOLECULE
*****
 29 30 0 0 0
SMALL
GASTEIGER

@<TRIPOS>ATOM
      1 C         142.2924  139.4350  163.8050 C.ar    1  UNL1       -0.0185
      2 C         141.1990  138.9185  164.6925 C.ar    1  UNL1       -0.0041
      3 C         141.1971  139.2559  166.1541 C.ar    1  UNL1        0.0057
      4 C         142.2885  140.1098  166.7281 C.ar    1  UNL1        0.0696
      5 C         143.3818  140.6263  165.8406 C.ar    1  UNL1        0.0095
      6 C         143.3838  140.2889  164.3790 C.ar    1  UNL1        0.0677
      7 C         141.4466  138.8699  157.0068 C.3     1  UNL1        0.0948
      8 C         142.3001  138.0855  157.9587 C.2     1  UNL1        0.2261
      9 O         143.1555  136.9637  157.4491 O.2     1  UNL1       -0.2749
     10 N         142.2982  138.4228  159.4203 N.am    1  UNL1       -0.2795
     11 C         141.4427  139.5446  159.9299 C.3     1  UNL1        0.0937
     12 C         141.4408  139.8820  161.3915 C.3     1  UNL1        0.0259
     13 C         142.2943  139.0976  162.3434 C.3     1  UNL1        0.0257
     14 C         143.1497  137.9758  161.8338 C.3     1  UNL1        0.0259
     15 C         143.1517  137.6384  160.3722 C.3     1  UNL1        0.0937
     16 C         142.2865  140.4472  168.1897 C.2     1  UNL1        0.3078
     17 O         141.7288  141.7592  168.6558 O.2     1  UNL1       -0.2516
     18 N         142.8423  139.4724  169.1851 N.am    1  UNL1       -0.1708
     19 H         143.2084  138.6113  168.8792 H       1  UNL1        0.2545
     20 C         142.8404  139.8098  170.6467 C.2     1  UNL1        0.3751
     21 N         141.6542  140.4963  171.2564 N.pl3   1  UNL1       -0.1313
     22 N         144.0247  139.4607  171.4986 N.pl3   1  UNL1       -0.2906
     23 H         140.8770  140.7255  170.6973 H       1  UNL1        0.3060
     24 H         144.8032  139.0101  171.0984 H       1  UNL1        0.2545
     25 H         144.0234  139.6821  172.4579 H       1  UNL1        0.2545
     26 C         144.4772  140.8055  163.4915 C.3     1  UNL1        0.4183
     27 F         145.5706  141.3221  162.6040 F       1  UNL1       -0.1659
     28 F         145.3460  139.6491  163.8887 F       1  UNL1       -0.1659
     29 F         143.6084  141.9619  163.0943 F       1  UNL1       -0.1659
@<TRIPOS>BOND
     1     7     8    1
     2     8     9    2
     3     8    10   am
     4    10    11    1
     5    11    12    1
     6    12    13    1
     7    13     1    1
     8     1     2   ar
     9     2     3   ar
    10     3     4   ar
    11     4    16    1
    12    16    17    2
    13    16    18   am
    14    18    20    1
    15    20    21    2
    16    20    22    1
    17     4     5   ar
    18     5     6   ar
    19     6    26    1
    20    26    27    1
    21    26    28    1
    22    26    29    1
    23    13    14    1
    24    14    15    1
    25    15    10    1
    26     6     1   ar
    27    18    19    1
    28    21    23    1
    29    22    24    1
    30    22    25    1
