@<TRIPOS>MOLECULE
*****
 24 27 0 0 0
SMALL
GASTEIGER

@<TRIPOS>ATOM
      1 N         139.1729  142.6360  164.8045 N.ar    1  UNL1       -0.2253
      2 C         138.0025  142.1546  163.9991 C.ar    1  UNL1        0.1053
      3 C         137.7070  143.1848  162.9496 C.ar    1  UNL1        0.0798
      4 C         138.6947  144.3028  163.1063 C.ar    1  UNL1        0.2438
      5 N         139.6007  143.9637  164.2528 N.ar    1  UNL1       -0.1273
      6 C         142.8581  140.3738  170.1479 C.ar    1  UNL1        0.0000
      7 C         143.3851  141.7111  169.7189 C.ar    1  UNL1        0.0000
      8 C         142.7534  142.4309  168.5645 C.ar    1  UNL1        0.0000
      9 C         141.5948  141.8136  167.8390 C.ar    1  UNL1        0.0015
     10 C         140.9631  142.5335  166.6845 C.ar    1  UNL1        0.0191
     11 C         139.8045  141.9161  165.9590 C.ar    1  UNL1        0.0830
     12 C         139.2775  140.5788  166.3880 C.ar    1  UNL1        0.0192
     13 C         139.9091  139.8589  167.5425 C.ar    1  UNL1        0.0015
     14 C         141.0678  140.4764  168.2680 C.ar    1  UNL1        0.0001
     15 C         141.6995  139.7565  169.4224 C.ar    1  UNL1        0.0000
     16 O         138.7642  145.5423  162.2645 O.3     1  UNL1       -0.4577
     17 C         140.0618  145.9457  161.6293 C.3     1  UNL1        0.2244
     18 C         140.8540  144.9452  160.8411 C.3     1  UNL1        0.1202
     19 N         142.1535  144.4249  161.3803 N.3     1  UNL1       -0.2653
     20 C         142.9354  143.4087  160.6019 C.3     1  UNL1        0.1047
     21 C         144.2348  142.8885  161.1410 C.3     1  UNL1        0.1595
     22 O         144.7524  143.3844  162.4587 O.3     1  UNL1       -0.3508
     23 C         143.9705  144.4007  163.2371 C.3     1  UNL1        0.1595
     24 C         142.6710  144.9210  162.6979 C.3     1  UNL1        0.1047
@<TRIPOS>BOND
     1     6     7   ar
     2     7     8   ar
     3     8     9   ar
     4     9    10   ar
     5    10    11   ar
     6    11     1    1
     7     1     2   ar
     8     2     3   ar
     9     3     4   ar
    10     4    16    1
    11    16    17    1
    12    17    18    1
    13    18    19    1
    14    19    20    1
    15    20    21    1
    16    21    22    1
    17    22    23    1
    18    23    24    1
    19     4     5   ar
    20    11    12   ar
    21    12    13   ar
    22    13    14   ar
    23    14    15   ar
    24    15     6   ar
    25    14     9   ar
    26     5     1   ar
    27    24    19    1
@<TRIPOS>MOLECULE
*****
 24 27 0 0 0
SMALL
GASTEIGER

@<TRIPOS>ATOM
      1 N         140.0598  138.9216  165.4972 N.ar    1  UNL1       -0.2253
      2 C         138.7289  138.4595  164.9824 C.ar    1  UNL1        0.1053
      3 C         138.9563  137.7502  163.6805 C.ar    1  UNL1        0.0798
      4 C         140.4278  137.7738  163.3906 C.ar    1  UNL1        0.2438
      5 N         141.1099  138.4978  164.5133 N.ar    1  UNL1       -0.1273
      6 C         142.3268  142.6286  170.8234 C.ar    1  UNL1        0.0000
      7 C         143.3986  142.5678  169.7759 C.ar    1  UNL1        0.0000
      8 C         143.1596  141.8143  168.5011 C.ar    1  UNL1        0.0000
      9 C         141.8487  141.1215  168.2739 C.ar    1  UNL1        0.0015
     10 C         141.6097  140.3679  166.9992 C.ar    1  UNL1        0.0191
     11 C         140.2989  139.6752  166.7719 C.ar    1  UNL1        0.0830
     12 C         139.2269  139.7360  167.8195 C.ar    1  UNL1        0.0192
     13 C         139.4660  140.4895  169.0943 C.ar    1  UNL1        0.0015
     14 C         140.7769  141.1823  169.3215 C.ar    1  UNL1        0.0001
     15 C         141.0159  141.9359  170.5962 C.ar    1  UNL1        0.0000
     16 O         141.0994  137.1781  162.1889 O.3     1  UNL1       -0.4577
     17 C         142.0521  138.0036  161.3759 C.3     1  UNL1        0.2244
     18 C         143.5053  138.0524  161.7445 C.3     1  UNL1        0.1202
     19 N         144.1120  139.3336  162.2348 N.3     1  UNL1       -0.2653
     20 C         144.2009  140.5195  161.3206 C.3     1  UNL1        0.1047
     21 C         144.8076  141.8006  161.8109 C.3     1  UNL1        0.1595
     22 O         145.3255  141.8959  163.2154 O.3     1  UNL1       -0.3508
     23 C         145.2366  140.7100  164.1297 C.3     1  UNL1        0.1595
     24 C         144.6299  139.4288  163.6394 C.3     1  UNL1        0.1047
@<TRIPOS>BOND
     1     6     7   ar
     2     7     8   ar
     3     8     9   ar
     4     9    10   ar
     5    10    11   ar
     6    11     1    1
     7     1     2   ar
     8     2     3   ar
     9     3     4   ar
    10     4    16    1
    11    16    17    1
    12    17    18    1
    13    18    19    1
    14    19    20    1
    15    20    21    1
    16    21    22    1
    17    22    23    1
    18    23    24    1
    19     4     5   ar
    20    11    12   ar
    21    12    13   ar
    22    13    14   ar
    23    14    15   ar
    24    15     6   ar
    25    14     9   ar
    26     5     1   ar
    27    24    19    1
@<TRIPOS>MOLECULE
*****
 24 27 0 0 0
SMALL
GASTEIGER

@<TRIPOS>ATOM
      1 N         139.1815  142.6710  164.8530 N.ar    1  UNL1       -0.2253
      2 C         138.6447  144.0711  164.8926 C.ar    1  UNL1        0.1053
      3 C         138.1038  144.3988  163.5325 C.ar    1  UNL1        0.0798
      4 C         138.3063  143.2012  162.6522 C.ar    1  UNL1        0.2438
      5 N         138.9724  142.1333  163.4683 N.ar    1  UNL1       -0.1273
      6 C         142.8697  140.3522  170.1701 C.ar    1  UNL1        0.0000
      7 C         143.3850  141.7018  169.7664 C.ar    1  UNL1        0.0000
      8 C         142.7504  142.4355  168.6223 C.ar    1  UNL1        0.0000
      9 C         141.6005  141.8196  167.8818 C.ar    1  UNL1        0.0015
     10 C         140.9660  142.5532  166.7377 C.ar    1  UNL1        0.0191
     11 C         139.8161  141.9373  165.9972 C.ar    1  UNL1        0.0830
     12 C         139.3007  140.5876  166.4008 C.ar    1  UNL1        0.0192
     13 C         139.9353  139.8540  167.5450 C.ar    1  UNL1        0.0015
     14 C         141.0852  140.4700  168.2855 C.ar    1  UNL1        0.0001
     15 C         141.7198  139.7363  169.4296 C.ar    1  UNL1        0.0000
     16 O         137.9120  143.0908  161.2092 O.3     1  UNL1       -0.4577
     17 C         138.5150  142.0222  160.3465 C.3     1  UNL1        0.2244
     18 C         137.9640  140.6276  160.3848 C.3     1  UNL1        0.1202
     19 N         138.7192  139.5419  161.0927 N.3     1  UNL1       -0.2653
     20 C         138.0543  138.7532  162.1817 C.3     1  UNL1        0.1047
     21 C         138.8094  137.6676  162.8895 C.3     1  UNL1        0.1595
     22 O         140.2294  137.3706  162.5084 O.3     1  UNL1       -0.3508
     23 C         140.8944  138.1593  161.4193 C.3     1  UNL1        0.1595
     24 C         140.1392  139.2450  160.7114 C.3     1  UNL1        0.1047
@<TRIPOS>BOND
     1     6     7   ar
     2     7     8   ar
     3     8     9   ar
     4     9    10   ar
     5    10    11   ar
     6    11     1    1
     7     1     2   ar
     8     2     3   ar
     9     3     4   ar
    10     4    16    1
    11    16    17    1
    12    17    18    1
    13    18    19    1
    14    19    20    1
    15    20    21    1
    16    21    22    1
    17    22    23    1
    18    23    24    1
    19     4     5   ar
    20    11    12   ar
    21    12    13   ar
    22    13    14   ar
    23    14    15   ar
    24    15     6   ar
    25    14     9   ar
    26     5     1   ar
    27    24    19    1
@<TRIPOS>MOLECULE
*****
 24 27 0 0 0
SMALL
GASTEIGER

@<TRIPOS>ATOM
      1 N         139.6347  139.1379  164.6826 N.ar    1  UNL1       -0.2253
      2 C         139.3030  137.7947  164.1034 C.ar    1  UNL1        0.1053
      3 C         138.5341  138.0142  162.8343 C.ar    1  UNL1        0.0798
      4 C         138.3905  139.4931  162.6292 C.ar    1  UNL1        0.2438
      5 N         139.0708  140.1877  163.7715 N.ar    1  UNL1       -0.1273
      6 C         141.9688  140.6521  170.9683 C.ar    1  UNL1        0.0000
      7 C         140.4935  140.9176  170.9152 C.ar    1  UNL1        0.0000
      8 C         139.7316  140.6679  169.6475 C.ar    1  UNL1        0.0000
      9 C         140.4451  140.1526  168.4328 C.ar    1  UNL1        0.0015
     10 C         139.6832  139.9029  167.1650 C.ar    1  UNL1        0.0191
     11 C         140.3966  139.3877  165.9504 C.ar    1  UNL1        0.0830
     12 C         141.8720  139.1221  166.0034 C.ar    1  UNL1        0.0192
     13 C         142.6339  139.3718  167.2712 C.ar    1  UNL1        0.0015
     14 C         141.9204  139.8871  168.4859 C.ar    1  UNL1        0.0001
     15 C         142.6823  140.1368  169.7536 C.ar    1  UNL1        0.0000
     16 O         137.6898  140.1604  161.4831 O.3     1  UNL1       -0.4577
     17 C         138.4696  140.9948  160.5105 C.3     1  UNL1        0.2244
     18 C         138.2307  142.4735  160.4307 C.3     1  UNL1        0.1202
     19 N         138.5991  143.3562  161.5862 N.3     1  UNL1       -0.2653
     20 C         137.7287  143.3956  162.8072 C.3     1  UNL1        0.1047
     21 C         138.0971  144.2782  163.9626 C.3     1  UNL1        0.1595
     22 O         139.3358  145.1215  163.8971 O.3     1  UNL1       -0.3508
     23 C         140.2063  145.0822  162.6761 C.3     1  UNL1        0.1595
     24 C         139.8379  144.1994  161.5206 C.3     1  UNL1        0.1047
@<TRIPOS>BOND
     1     6     7   ar
     2     7     8   ar
     3     8     9   ar
     4     9    10   ar
     5    10    11   ar
     6    11     1    1
     7     1     2   ar
     8     2     3   ar
     9     3     4   ar
    10     4    16    1
    11    16    17    1
    12    17    18    1
    13    18    19    1
    14    19    20    1
    15    20    21    1
    16    21    22    1
    17    22    23    1
    18    23    24    1
    19     4     5   ar
    20    11    12   ar
    21    12    13   ar
    22    13    14   ar
    23    14    15   ar
    24    15     6   ar
    25    14     9   ar
    26     5     1   ar
    27    24    19    1
@<TRIPOS>MOLECULE
*****
 24 27 0 0 0
SMALL
GASTEIGER

@<TRIPOS>ATOM
      1 N         142.1069  142.9682  164.1198 N.ar    1  UNL1       -0.2253
      2 C         143.1541  144.0268  164.3006 C.ar    1  UNL1        0.1053
      3 C         143.5601  144.5143  162.9414 C.ar    1  UNL1        0.0798
      4 C         142.7637  143.7571  161.9204 C.ar    1  UNL1        0.2438
      5 N         141.8655  142.8015  162.6487 N.ar    1  UNL1       -0.1273
      6 C         139.1950  140.5601  169.8619 C.ar    1  UNL1        0.0000
      7 C         139.7111  141.9453  170.1167 C.ar    1  UNL1        0.0000
      8 C         140.3966  142.7039  169.0193 C.ar    1  UNL1        0.0000
      9 C         140.5662  142.0774  167.6670 C.ar    1  UNL1        0.0015
     10 C         141.2518  142.8361  166.5695 C.ar    1  UNL1        0.0191
     11 C         141.4213  142.2096  165.2172 C.ar    1  UNL1        0.0830
     12 C         140.9052  140.8244  164.9624 C.ar    1  UNL1        0.0192
     13 C         140.2196  140.0657  166.0598 C.ar    1  UNL1        0.0015
     14 C         140.0501  140.6923  167.4122 C.ar    1  UNL1        0.0001
     15 C         139.3645  139.9336  168.5096 C.ar    1  UNL1        0.0000
     16 O         142.8502  143.9257  160.4325 O.3     1  UNL1       -0.4577
     17 C         141.7233  144.5741  159.6843 C.3     1  UNL1        0.2244
     18 C         140.6318  145.2779  160.4347 C.3     1  UNL1        0.1202
     19 N         139.5599  144.4832  161.1201 N.3     1  UNL1       -0.2653
     20 C         138.9386  144.9967  162.3852 C.3     1  UNL1        0.1047
     21 C         137.8669  144.2021  163.0705 C.3     1  UNL1        0.1595
     22 O         137.4163  142.8940  162.4909 O.3     1  UNL1       -0.3508
     23 C         138.0376  142.3805  161.2258 C.3     1  UNL1        0.1595
     24 C         139.1095  143.1752  160.5404 C.3     1  UNL1        0.1047
@<TRIPOS>BOND
     1     6     7   ar
     2     7     8   ar
     3     8     9   ar
     4     9    10   ar
     5    10    11   ar
     6    11     1    1
     7     1     2   ar
     8     2     3   ar
     9     3     4   ar
    10     4    16    1
    11    16    17    1
    12    17    18    1
    13    18    19    1
    14    19    20    1
    15    20    21    1
    16    21    22    1
    17    22    23    1
    18    23    24    1
    19     4     5   ar
    20    11    12   ar
    21    12    13   ar
    22    13    14   ar
    23    14    15   ar
    24    15     6   ar
    25    14     9   ar
    26     5     1   ar
    27    24    19    1
@<TRIPOS>MOLECULE
*****
 24 27 0 0 0
SMALL
GASTEIGER

@<TRIPOS>ATOM
      1 N         143.2693  142.8520  164.2111 N.ar    1  UNL1       -0.2253
      2 C         144.0708  144.1199  164.2248 C.ar    1  UNL1        0.1053
      3 C         143.9987  144.7287  162.8558 C.ar    1  UNL1        0.0798
      4 C         143.1526  143.8370  161.9960 C.ar    1  UNL1        0.2438
      5 N         142.7018  142.6772  162.8336 N.ar    1  UNL1       -0.1273
      6 C         142.4135  139.6777  170.2478 C.ar    1  UNL1        0.0000
      7 C         142.5530  141.1524  170.4839 C.ar    1  UNL1        0.0000
      8 C         142.7520  142.0822  169.3238 C.ar    1  UNL1        0.0000
      9 C         142.8116  141.5373  167.9276 C.ar    1  UNL1        0.0015
     10 C         143.0107  142.4671  166.7675 C.ar    1  UNL1        0.0191
     11 C         143.0703  141.9222  165.3713 C.ar    1  UNL1        0.0830
     12 C         142.9308  140.4475  165.1351 C.ar    1  UNL1        0.0192
     13 C         142.7317  139.5177  166.2952 C.ar    1  UNL1        0.0015
     14 C         142.6721  140.0626  167.6915 C.ar    1  UNL1        0.0001
     15 C         142.4731  139.1329  168.8516 C.ar    1  UNL1        0.0000
     16 O         142.8163  144.0652  160.5521 O.3     1  UNL1       -0.4577
     17 C         141.5518  144.7813  160.1806 C.3     1  UNL1        0.2244
     18 C         140.6252  145.2726  161.2531 C.3     1  UNL1        0.1202
     19 N         139.5215  144.3886  161.7535 N.3     1  UNL1       -0.2653
     20 C         139.1689  143.1349  161.0092 C.3     1  UNL1        0.1047
     21 C         138.0652  142.2510  161.5096 C.3     1  UNL1        0.1595
     22 O         137.3141  142.6207  162.7542 O.3     1  UNL1       -0.3508
     23 C         137.6667  143.8745  163.4985 C.3     1  UNL1        0.1595
     24 C         138.7704  144.7585  162.9981 C.3     1  UNL1        0.1047
@<TRIPOS>BOND
     1     6     7   ar
     2     7     8   ar
     3     8     9   ar
     4     9    10   ar
     5    10    11   ar
     6    11     1    1
     7     1     2   ar
     8     2     3   ar
     9     3     4   ar
    10     4    16    1
    11    16    17    1
    12    17    18    1
    13    18    19    1
    14    19    20    1
    15    20    21    1
    16    21    22    1
    17    22    23    1
    18    23    24    1
    19     4     5   ar
    20    11    12   ar
    21    12    13   ar
    22    13    14   ar
    23    14    15   ar
    24    15     6   ar
    25    14     9   ar
    26     5     1   ar
    27    24    19    1
@<TRIPOS>MOLECULE
*****
 24 27 0 0 0
SMALL
GASTEIGER

@<TRIPOS>ATOM
      1 N         140.9464  143.3938  163.9125 N.ar    1  UNL1       -0.2253
      2 C         140.6378  144.8541  163.7633 C.ar    1  UNL1        0.1053
      3 C         141.2219  145.3208  162.4629 C.ar    1  UNL1        0.0798
      4 C         141.8914  144.1490  161.8083 C.ar    1  UNL1        0.2438
      5 N         141.7212  142.9579  162.7042 N.ar    1  UNL1       -0.1273
      6 C         139.4492  140.4339  169.9330 C.ar    1  UNL1        0.0000
      7 C         139.9347  141.8314  170.1803 C.ar    1  UNL1        0.0000
      8 C         140.3312  142.7029  169.0256 C.ar    1  UNL1        0.0000
      9 C         140.2423  142.1769  167.6237 C.ar    1  UNL1        0.0015
     10 C         140.6388  143.0484  166.4690 C.ar    1  UNL1        0.0191
     11 C         140.5499  142.5223  165.0672 C.ar    1  UNL1        0.0830
     12 C         140.0643  141.1247  164.8199 C.ar    1  UNL1        0.0192
     13 C         139.6678  140.2532  165.9745 C.ar    1  UNL1        0.0015
     14 C         139.7568  140.7794  167.3765 C.ar    1  UNL1        0.0001
     15 C         139.3602  139.9079  168.5312 C.ar    1  UNL1        0.0000
     16 O         142.6058  144.1652  160.4895 O.3     1  UNL1       -0.4577
     17 C         143.3155  142.9354  160.0058 C.3     1  UNL1        0.2244
     18 C         144.6404  142.5530  160.5961 C.3     1  UNL1        0.1202
     19 N         144.7070  141.5259  161.6872 N.3     1  UNL1       -0.2653
     20 C         144.0552  140.1881  161.4987 C.3     1  UNL1        0.1047
     21 C         144.1217  139.1610  162.5898 C.3     1  UNL1        0.1595
     22 O         144.8400  139.4717  163.8695 O.3     1  UNL1       -0.3508
     23 C         145.4918  140.8095  164.0580 C.3     1  UNL1        0.1595
     24 C         145.4253  141.8366  162.9669 C.3     1  UNL1        0.1047
@<TRIPOS>BOND
     1     6     7   ar
     2     7     8   ar
     3     8     9   ar
     4     9    10   ar
     5    10    11   ar
     6    11     1    1
     7     1     2   ar
     8     2     3   ar
     9     3     4   ar
    10     4    16    1
    11    16    17    1
    12    17    18    1
    13    18    19    1
    14    19    20    1
    15    20    21    1
    16    21    22    1
    17    22    23    1
    18    23    24    1
    19     4     5   ar
    20    11    12   ar
    21    12    13   ar
    22    13    14   ar
    23    14    15   ar
    24    15     6   ar
    25    14     9   ar
    26     5     1   ar
    27    24    19    1
@<TRIPOS>MOLECULE
*****
 24 27 0 0 0
SMALL
GASTEIGER

@<TRIPOS>ATOM
      1 N         139.9343  139.5401  164.4401 N.ar    1  UNL1       -0.2253
      2 C         138.9690  138.3979  164.3239 C.ar    1  UNL1        0.1053
      3 C         139.2043  137.7245  163.0044 C.ar    1  UNL1        0.0798
      4 C         140.3150  138.4506  162.3050 C.ar    1  UNL1        0.2438
      5 N         140.7662  139.5727  163.1923 N.ar    1  UNL1       -0.1273
      6 C         140.2714  142.7974  170.4838 C.ar    1  UNL1        0.0000
      7 C         140.0410  141.3352  170.7263 C.ar    1  UNL1        0.0000
      8 C         139.9275  140.3913  169.5661 C.ar    1  UNL1        0.0000
      9 C         140.0444  140.9096  168.1633 C.ar    1  UNL1        0.0015
     10 C         139.9309  139.9657  167.0031 C.ar    1  UNL1        0.0191
     11 C         140.0478  140.4840  165.6004 C.ar    1  UNL1        0.0830
     12 C         140.2782  141.9463  165.3578 C.ar    1  UNL1        0.0192
     13 C         140.3917  142.8902  166.5181 C.ar    1  UNL1        0.0015
     14 C         140.2748  142.3718  167.9209 C.ar    1  UNL1        0.0001
     15 C         140.3883  143.3157  169.0811 C.ar    1  UNL1        0.0000
     16 O         140.8760  138.1138  160.9553 O.3     1  UNL1       -0.4577
     17 C         142.3610  138.0329  160.7592 C.3     1  UNL1        0.2244
     18 C         143.1646  139.2881  160.5896 C.3     1  UNL1        0.1202
     19 N         143.9604  139.8302  161.7397 N.3     1  UNL1       -0.2653
     20 C         144.1811  138.9890  162.9618 C.3     1  UNL1        0.1047
     21 C         144.9769  139.5311  164.1118 C.3     1  UNL1        0.1595
     22 O         145.5521  140.9146  164.0398 O.3     1  UNL1       -0.3508
     23 C         145.3314  141.7559  162.8177 C.3     1  UNL1        0.1595
     24 C         144.5356  141.2137  161.6676 C.3     1  UNL1        0.1047
@<TRIPOS>BOND
     1     6     7   ar
     2     7     8   ar
     3     8     9   ar
     4     9    10   ar
     5    10    11   ar
     6    11     1    1
     7     1     2   ar
     8     2     3   ar
     9     3     4   ar
    10     4    16    1
    11    16    17    1
    12    17    18    1
    13    18    19    1
    14    19    20    1
    15    20    21    1
    16    21    22    1
    17    22    23    1
    18    23    24    1
    19     4     5   ar
    20    11    12   ar
    21    12    13   ar
    22    13    14   ar
    23    14    15   ar
    24    15     6   ar
    25    14     9   ar
    26     5     1   ar
    27    24    19    1
@<TRIPOS>MOLECULE
*****
 24 27 0 0 0
SMALL
GASTEIGER

@<TRIPOS>ATOM
      1 N         140.3412  142.1267  164.0926 N.ar    1  UNL1       -0.2253
      2 C         140.8149  142.7019  162.7907 C.ar    1  UNL1        0.1053
      3 C         139.7813  142.3988  161.7467 C.ar    1  UNL1        0.0798
      4 C         138.6689  141.6364  162.4033 C.ar    1  UNL1        0.2438
      5 N         139.0148  141.4682  163.8532 N.ar    1  UNL1       -0.1273
      6 C         142.4679  142.4596  170.6207 C.ar    1  UNL1        0.0000
      7 C         140.9683  142.4377  170.5933 C.ar    1  UNL1        0.0000
      8 C         140.2431  142.3668  169.2822 C.ar    1  UNL1        0.0000
      9 C         141.0174  142.3177  167.9985 C.ar    1  UNL1        0.0015
     10 C         140.2921  142.2468  166.6874 C.ar    1  UNL1        0.0191
     11 C         141.0664  142.1977  165.4037 C.ar    1  UNL1        0.0830
     12 C         142.5661  142.2195  165.4310 C.ar    1  UNL1        0.0192
     13 C         143.2913  142.2904  166.7421 C.ar    1  UNL1        0.0015
     14 C         142.5169  142.3395  168.0259 C.ar    1  UNL1        0.0001
     15 C         143.2422  142.4105  169.3370 C.ar    1  UNL1        0.0000
     16 O         137.4283  141.1308  161.7286 O.3     1  UNL1       -0.4577
     17 C         137.4708  139.8572  160.9374 C.3     1  UNL1        0.2244
     18 C         137.6573  138.5444  161.6387 C.3     1  UNL1        0.1202
     19 N         138.9989  138.1784  162.2010 N.3     1  UNL1       -0.2653
     20 C         140.2199  138.2456  161.3324 C.3     1  UNL1        0.1047
     21 C         141.5614  137.8797  161.8947 C.3     1  UNL1        0.1595
     22 O         141.6820  137.4465  163.3257 O.3     1  UNL1       -0.3508
     23 C         140.4609  137.3793  164.1944 C.3     1  UNL1        0.1595
     24 C         139.1193  137.7453  163.6321 C.3     1  UNL1        0.1047
@<TRIPOS>BOND
     1     6     7   ar
     2     7     8   ar
     3     8     9   ar
     4     9    10   ar
     5    10    11   ar
     6    11     1    1
     7     1     2   ar
     8     2     3   ar
     9     3     4   ar
    10     4    16    1
    11    16    17    1
    12    17    18    1
    13    18    19    1
    14    19    20    1
    15    20    21    1
    16    21    22    1
    17    22    23    1
    18    23    24    1
    19     4     5   ar
    20    11    12   ar
    21    12    13   ar
    22    13    14   ar
    23    14    15   ar
    24    15     6   ar
    25    14     9   ar
    26     5     1   ar
    27    24    19    1
