@<TRIPOS>MOLECULE
*****
 32 35 0 0 0
SMALL
GASTEIGER

@<TRIPOS>ATOM
      1 C         144.0569  140.2089  162.1484 C.ar    1  UNL1        0.1592
      2 C         144.0838  139.3983  160.8866 C.ar    1  UNL1        0.0532
      3 C         143.3078  138.1176  160.8012 C.ar    1  UNL1        0.0538
      4 C         142.5046  137.6474  161.9776 C.ar    1  UNL1        0.0180
      5 C         142.4777  138.4580  163.2394 C.ar    1  UNL1        0.0423
      6 C         141.7820  138.2491  164.5518 C.ar    1  UNL1        0.0966
      7 N         142.1282  139.4008  165.4484 N.ar    1  UNL1       -0.2512
      8 N         143.0378  140.3214  164.6901 N.ar    1  UNL1       -0.1662
      9 C         143.2538  139.7388  163.3248 C.ar    1  UNL1        0.1362
     10 C         141.6490  139.5973  166.8561 C.3     1  UNL1        0.1080
     11 C         140.2199  139.9713  167.1166 C.3     1  UNL1        0.0417
     12 C         139.7408  140.1678  168.5244 C.3     1  UNL1        0.0741
     13 N         140.6906  139.9904  169.6716 N.3     1  UNL1       -0.2714
     14 C         140.2114  140.1870  171.0794 C.3     1  UNL1        0.0896
     15 C         142.1197  139.6165  169.4112 C.3     1  UNL1        0.0741
     16 C         142.5989  139.4199  168.0034 C.3     1  UNL1        0.0417
     17 N         143.3347  137.3070  159.5393 N.am    1  UNL1       -0.2791
     18 C         142.5071  137.7264  158.3606 C.2     1  UNL1        0.2672
     19 O         141.6526  138.9563  158.4438 O.2     1  UNL1       -0.2682
     20 H         143.8956  136.4998  159.4847 H       1  UNL1        0.1552
     21 C         142.5341  136.9158  157.0988 C.ar    1  UNL1        0.1347
     22 C         141.9117  137.4574  155.8461 C.ar    1  UNL1        0.0238
     23 C         141.9387  136.6467  154.5842 C.ar    1  UNL1        0.0032
     24 C         142.5881  135.2946  154.5751 C.ar    1  UNL1        0.0231
     25 C         143.2104  134.7531  155.8279 C.ar    1  UNL1        0.1527
     26 N         143.1834  135.5637  157.0897 N.ar    1  UNL1       -0.2368
     27 C         143.8598  133.4010  155.8189 C.3     1  UNL1        0.4348
     28 F         144.5091  132.0488  155.8098 F       1  UNL1       -0.1644
     29 F         144.4298  133.6656  157.1808 F       1  UNL1       -0.1644
     30 F         143.2897  133.1364  154.4569 F       1  UNL1       -0.1644
     31 C         145.8085  141.7023  163.3533 C.3     1  UNL1        0.2525
     32 O         144.8330  141.4897  162.2338 O.3     1  UNL1       -0.4698
@<TRIPOS>BOND
     1    31    32    1
     2    32     1    1
     3     1     2   ar
     4     2     3   ar
     5     3    17    1
     6    17    18   am
     7    18    19    2
     8    18    21    1
     9    21    22   ar
    10    22    23   ar
    11    23    24   ar
    12    24    25   ar
    13    25    27    1
    14    27    28    1
    15    27    29    1
    16    27    30    1
    17    25    26   ar
    18     3     4   ar
    19     4     5   ar
    20     5     6   ar
    21     6     7   ar
    22     7    10    1
    23    10    11    1
    24    11    12    1
    25    12    13    1
    26    13    14    1
    27    13    15    1
    28    15    16    1
    29     7     8   ar
    30     8     9   ar
    31     9     1   ar
    32    26    21   ar
    33     9     5   ar
    34    16    10    1
    35    17    20    1
@<TRIPOS>MOLECULE
*****
 32 35 0 0 0
SMALL
GASTEIGER

@<TRIPOS>ATOM
      1 C         139.8392  138.4518  162.2036 C.ar    1  UNL1        0.1592
      2 C         139.0557  138.6450  160.9392 C.ar    1  UNL1        0.0532
      3 C         138.0063  139.7139  160.8630 C.ar    1  UNL1        0.0538
      4 C         137.7401  140.5897  162.0514 C.ar    1  UNL1        0.0180
      5 C         138.5235  140.3966  163.3158 C.ar    1  UNL1        0.0423
      6 C         138.4832  141.1017  164.6391 C.ar    1  UNL1        0.0966
      7 N         139.5079  140.4686  165.5331 N.ar    1  UNL1       -0.2512
      8 N         140.1814  139.3721  164.7623 N.ar    1  UNL1       -0.1662
      9 C         139.5731  139.3276  163.3920 C.ar    1  UNL1        0.1362
     10 C         139.8066  140.8627  166.9492 C.3     1  UNL1        0.1080
     11 C         140.4940  142.1646  167.2363 C.3     1  UNL1        0.0417
     12 C         140.7927  142.5586  168.6526 C.3     1  UNL1        0.0741
     13 N         140.4039  141.6508  169.7816 N.3     1  UNL1       -0.2714
     14 C         140.7026  142.0449  171.1977 C.3     1  UNL1        0.0896
     15 C         139.7164  140.3489  169.4945 C.3     1  UNL1        0.0741
     16 C         139.4178  139.9549  168.0783 C.3     1  UNL1        0.0417
     17 N         137.2228  139.9071  159.5984 N.am    1  UNL1       -0.2791
     18 C         137.8358  140.6376  158.4406 C.2     1  UNL1        0.2672
     19 O         139.2321  141.1750  158.5472 O.2     1  UNL1       -0.2682
     20 H         136.3063  139.5544  159.5284 H       1  UNL1        0.1552
     21 C         137.0524  140.8308  157.1761 C.ar    1  UNL1        0.1347
     22 C         137.7242  141.3851  155.9549 C.ar    1  UNL1        0.0238
     23 C         136.9407  141.5783  154.6904 C.ar    1  UNL1        0.0032
     24 C         135.4855  141.2171  154.6471 C.ar    1  UNL1        0.0231
     25 C         134.8137  140.6628  155.8684 C.ar    1  UNL1        0.1527
     26 N         135.5972  140.4696  157.1328 N.ar    1  UNL1       -0.2368
     27 C         133.3585  140.3016  155.8251 C.3     1  UNL1        0.4348
     28 F         131.9033  139.9405  155.7819 F       1  UNL1       -0.1644
     29 F         133.7116  138.8560  156.0138 F       1  UNL1       -0.1644
     30 F         133.0053  141.7472  155.6365 F       1  UNL1       -0.1644
     31 C         142.3388  137.7451  162.1534 C.3     1  UNL1        0.2525
     32 O         140.8887  137.3828  162.2798 O.3     1  UNL1       -0.4698
@<TRIPOS>BOND
     1    31    32    1
     2    32     1    1
     3     1     2   ar
     4     2     3   ar
     5     3    17    1
     6    17    18   am
     7    18    19    2
     8    18    21    1
     9    21    22   ar
    10    22    23   ar
    11    23    24   ar
    12    24    25   ar
    13    25    27    1
    14    27    28    1
    15    27    29    1
    16    27    30    1
    17    25    26   ar
    18     3     4   ar
    19     4     5   ar
    20     5     6   ar
    21     6     7   ar
    22     7    10    1
    23    10    11    1
    24    11    12    1
    25    12    13    1
    26    13    14    1
    27    13    15    1
    28    15    16    1
    29     7     8   ar
    30     8     9   ar
    31     9     1   ar
    32    26    21   ar
    33     9     5   ar
    34    16    10    1
    35    17    20    1
@<TRIPOS>MOLECULE
*****
 32 35 0 0 0
SMALL
GASTEIGER

@<TRIPOS>ATOM
      1 C         138.3190  141.3452  158.1798 C.ar    1  UNL1        0.1592
      2 C         138.5305  140.7966  159.5597 C.ar    1  UNL1        0.0532
      3 C         139.2907  141.5957  160.5761 C.ar    1  UNL1        0.0538
      4 C         139.8396  142.9436  160.2128 C.ar    1  UNL1        0.0180
      5 C         139.6281  143.4923  158.8329 C.ar    1  UNL1        0.0423
      6 C         140.0483  144.7806  158.1898 C.ar    1  UNL1        0.0966
      7 N         139.5477  144.7777  156.7758 N.ar    1  UNL1       -0.2512
      8 N         138.8181  143.4875  156.5450 N.ar    1  UNL1       -0.1662
      9 C         138.8678  142.6931  157.8163 C.ar    1  UNL1        0.1362
     10 C         139.7425  145.8726  155.7692 C.3     1  UNL1        0.1080
     11 C         139.0593  147.1947  155.9575 C.3     1  UNL1        0.0417
     12 C         139.2541  148.2896  154.9509 C.3     1  UNL1        0.0741
     13 N         140.1321  148.0626  153.7561 N.3     1  UNL1       -0.2714
     14 C         140.3269  149.1575  152.7495 C.3     1  UNL1        0.0896
     15 C         140.8153  146.7405  153.5678 C.3     1  UNL1        0.0741
     16 C         140.6205  145.6456  154.5744 C.3     1  UNL1        0.0417
     17 N         139.5022  141.0469  161.9562 N.am    1  UNL1       -0.2791
     18 C         138.6570  141.5352  163.0951 C.2     1  UNL1        0.2672
     19 O         137.6003  142.5722  162.8541 O.2     1  UNL1       -0.2682
     20 H         140.1957  140.3663  162.1143 H       1  UNL1        0.1552
     21 C         138.8684  140.9866  164.4750 C.ar    1  UNL1        0.1347
     22 C         139.6831  141.7566  165.4716 C.ar    1  UNL1        0.0238
     23 C         139.8945  141.2078  166.8516 C.ar    1  UNL1        0.0032
     24 C         139.2912  139.8891  167.2349 C.ar    1  UNL1        0.0231
     25 C         138.4766  139.1190  166.2382 C.ar    1  UNL1        0.1527
     26 N         138.2652  139.6678  164.8583 N.ar    1  UNL1       -0.2368
     27 C         137.8733  137.8003  166.6215 C.3     1  UNL1        0.4348
     28 F         137.2701  136.4815  167.0048 F       1  UNL1       -0.1644
     29 F         137.0682  138.4790  167.6897 F       1  UNL1       -0.1644
     30 F         138.6784  137.1215  165.5533 F       1  UNL1       -0.1644
     31 C         136.2186  141.0211  156.6853 C.3     1  UNL1        0.2525
     32 O         137.5587  140.5461  157.1632 O.3     1  UNL1       -0.4698
@<TRIPOS>BOND
     1    31    32    1
     2    32     1    1
     3     1     2   ar
     4     2     3   ar
     5     3    17    1
     6    17    18   am
     7    18    19    2
     8    18    21    1
     9    21    22   ar
    10    22    23   ar
    11    23    24   ar
    12    24    25   ar
    13    25    27    1
    14    27    28    1
    15    27    29    1
    16    27    30    1
    17    25    26   ar
    18     3     4   ar
    19     4     5   ar
    20     5     6   ar
    21     6     7   ar
    22     7    10    1
    23    10    11    1
    24    11    12    1
    25    12    13    1
    26    13    14    1
    27    13    15    1
    28    15    16    1
    29     7     8   ar
    30     8     9   ar
    31     9     1   ar
    32    26    21   ar
    33     9     5   ar
    34    16    10    1
    35    17    20    1
@<TRIPOS>MOLECULE
*****
 32 35 0 0 0
SMALL
GASTEIGER

@<TRIPOS>ATOM
      1 C         141.4909  144.2674  161.4209 C.ar    1  UNL1        0.1592
      2 C         141.1249  143.7754  162.7898 C.ar    1  UNL1        0.0532
      3 C         141.7526  142.5247  163.3299 C.ar    1  UNL1        0.0538
      4 C         142.7463  141.7659  162.5011 C.ar    1  UNL1        0.0180
      5 C         143.1122  142.2579  161.1322 C.ar    1  UNL1        0.0423
      6 C         144.0528  141.7249  160.0923 C.ar    1  UNL1        0.0966
      7 N         144.0064  142.6463  158.9096 N.ar    1  UNL1       -0.2512
      8 N         143.0372  143.7487  159.2184 N.ar    1  UNL1       -0.1662
      9 C         142.4846  143.5086  160.5921 C.ar    1  UNL1        0.1362
     10 C         144.7914  142.4923  157.6407 C.3     1  UNL1        0.1080
     11 C         146.2805  142.6719  157.6535 C.3     1  UNL1        0.0417
     12 C         147.0654  142.5179  156.3845 C.3     1  UNL1        0.0741
     13 N         146.3613  142.1843  155.1028 N.3     1  UNL1       -0.2714
     14 C         147.1463  142.0303  153.8339 C.3     1  UNL1        0.0896
     15 C         144.8722  142.0046  155.0900 C.3     1  UNL1        0.0741
     16 C         144.0872  142.1586  156.3589 C.3     1  UNL1        0.0417
     17 N         141.3865  142.0327  164.6989 N.am    1  UNL1       -0.2791
     18 C         142.4370  141.9302  165.7648 C.2     1  UNL1        0.2672
     19 O         143.8535  142.3197  165.4616 O.2     1  UNL1       -0.2682
     20 H         140.4569  141.7770  164.8979 H       1  UNL1        0.1552
     21 C         142.0711  141.4382  167.1337 C.ar    1  UNL1        0.1347
     22 C         142.5838  140.1139  167.6166 C.ar    1  UNL1        0.0238
     23 C         142.2178  139.6220  168.9856 C.ar    1  UNL1        0.0032
     24 C         141.3390  140.4543  169.8716 C.ar    1  UNL1        0.0231
     25 C         140.8263  141.7787  169.3886 C.ar    1  UNL1        0.1527
     26 N         141.1923  142.2706  168.0197 N.ar    1  UNL1       -0.2368
     27 C         139.9476  142.6110  170.2746 C.3     1  UNL1        0.4348
     28 F         139.0689  143.4434  171.1606 F       1  UNL1       -0.1644
     29 F         140.9710  143.7076  170.2595 F       1  UNL1       -0.1644
     30 F         138.9242  141.5145  170.2898 F       1  UNL1       -0.1644
     31 C         139.7950  146.2203  161.6655 C.3     1  UNL1        0.2525
     32 O         140.8632  145.5181  160.8808 O.3     1  UNL1       -0.4698
@<TRIPOS>BOND
     1    31    32    1
     2    32     1    1
     3     1     2   ar
     4     2     3   ar
     5     3    17    1
     6    17    18   am
     7    18    19    2
     8    18    21    1
     9    21    22   ar
    10    22    23   ar
    11    23    24   ar
    12    24    25   ar
    13    25    27    1
    14    27    28    1
    15    27    29    1
    16    27    30    1
    17    25    26   ar
    18     3     4   ar
    19     4     5   ar
    20     5     6   ar
    21     6     7   ar
    22     7    10    1
    23    10    11    1
    24    11    12    1
    25    12    13    1
    26    13    14    1
    27    13    15    1
    28    15    16    1
    29     7     8   ar
    30     8     9   ar
    31     9     1   ar
    32    26    21   ar
    33     9     5   ar
    34    16    10    1
    35    17    20    1
@<TRIPOS>MOLECULE
*****
 32 35 0 0 0
SMALL
GASTEIGER

@<TRIPOS>ATOM
      1 C         139.4124  138.5970  156.3476 C.ar    1  UNL1        0.1592
      2 C         139.3882  139.9341  157.0271 C.ar    1  UNL1        0.0532
      3 C         140.5135  140.3348  157.9343 C.ar    1  UNL1        0.0538
      4 C         141.6631  139.3984  158.1621 C.ar    1  UNL1        0.0180
      5 C         141.6872  138.0614  157.4827 C.ar    1  UNL1        0.0423
      6 C         142.6795  136.9369  157.5150 C.ar    1  UNL1        0.0966
      7 N         142.1674  135.8412  156.6278 N.ar    1  UNL1       -0.2512
      8 N         140.8587  136.2885  156.0470 N.ar    1  UNL1       -0.1662
      9 C         140.5619  137.6607  156.5754 C.ar    1  UNL1        0.1362
     10 C         142.8450  134.5287  156.3670 C.3     1  UNL1        0.1080
     11 C         142.6124  133.8088  155.0718 C.3     1  UNL1        0.0417
     12 C         143.2900  132.4962  154.8111 C.3     1  UNL1        0.0741
     13 N         144.2003  131.9035  155.8455 N.3     1  UNL1       -0.2714
     14 C         144.8780  130.5910  155.5848 C.3     1  UNL1        0.0896
     15 C         144.4330  132.6234  157.1407 C.3     1  UNL1        0.0741
     16 C         143.7553  133.9360  157.4014 C.3     1  UNL1        0.0417
     17 N         140.4893  141.6719  158.6138 N.am    1  UNL1       -0.2791
     18 C         139.8369  141.8192  159.9564 C.2     1  UNL1        0.2672
     19 O         139.2087  140.6294  160.6196 O.2     1  UNL1       -0.2682
     20 H         140.9016  142.4528  158.1785 H       1  UNL1        0.1552
     21 C         139.8127  143.1563  160.6359 C.ar    1  UNL1        0.1347
     22 C         140.3242  144.3709  159.9197 C.ar    1  UNL1        0.0238
     23 C         140.3000  145.7080  160.5992 C.ar    1  UNL1        0.0032
     24 C         139.7642  145.8304  161.9949 C.ar    1  UNL1        0.0231
     25 C         139.2526  144.6156  162.7111 C.ar    1  UNL1        0.1527
     26 N         139.2769  143.2787  162.0315 N.ar    1  UNL1       -0.2368
     27 C         138.7168  144.7381  164.1068 C.3     1  UNL1        0.4348
     28 F         138.1811  144.8605  165.5024 F       1  UNL1       -0.1644
     29 F         140.0871  145.0955  164.6014 F       1  UNL1       -0.1644
     30 F         137.3466  144.3806  163.6121 F       1  UNL1       -0.1644
     31 C         138.5088  138.1205  153.9588 C.3     1  UNL1        0.2525
     32 O         138.2871  138.1963  155.4403 O.3     1  UNL1       -0.4698
@<TRIPOS>BOND
     1    31    32    1
     2    32     1    1
     3     1     2   ar
     4     2     3   ar
     5     3    17    1
     6    17    18   am
     7    18    19    2
     8    18    21    1
     9    21    22   ar
    10    22    23   ar
    11    23    24   ar
    12    24    25   ar
    13    25    27    1
    14    27    28    1
    15    27    29    1
    16    27    30    1
    17    25    26   ar
    18     3     4   ar
    19     4     5   ar
    20     5     6   ar
    21     6     7   ar
    22     7    10    1
    23    10    11    1
    24    11    12    1
    25    12    13    1
    26    13    14    1
    27    13    15    1
    28    15    16    1
    29     7     8   ar
    30     8     9   ar
    31     9     1   ar
    32    26    21   ar
    33     9     5   ar
    34    16    10    1
    35    17    20    1
@<TRIPOS>MOLECULE
*****
 32 35 0 0 0
SMALL
GASTEIGER

@<TRIPOS>ATOM
      1 C         138.4042  141.3203  158.5016 C.ar    1  UNL1        0.1592
      2 C         138.6184  140.7974  159.8911 C.ar    1  UNL1        0.0532
      3 C         139.3443  141.6330  160.9032 C.ar    1  UNL1        0.0538
      4 C         139.8562  142.9917  160.5260 C.ar    1  UNL1        0.0180
      5 C         139.6420  143.5145  159.1365 C.ar    1  UNL1        0.0423
      6 C         140.0297  144.8059  158.4792 C.ar    1  UNL1        0.0966
      7 N         139.5434  144.7683  157.0607 N.ar    1  UNL1       -0.2512
      8 N         138.8550  143.4537  156.8414 N.ar    1  UNL1       -0.1662
      9 C         138.9160  142.6788  158.1243 C.ar    1  UNL1        0.1362
     10 C         139.7152  145.8545  156.0406 C.3     1  UNL1        0.1080
     11 C         140.5531  145.6118  154.8204 C.3     1  UNL1        0.0417
     12 C         140.7249  146.6981  153.8004 C.3     1  UNL1        0.0741
     13 N         140.0587  148.0271  154.0005 N.3     1  UNL1       -0.2714
     14 C         140.2305  149.1133  152.9804 C.3     1  UNL1        0.0896
     15 C         139.2208  148.2698  155.2207 C.3     1  UNL1        0.0741
     16 C         139.0490  147.1835  156.2408 C.3     1  UNL1        0.0417
     17 N         139.5586  141.1101  162.2928 N.am    1  UNL1       -0.2791
     18 C         138.5755  141.4379  163.3773 C.2     1  UNL1        0.2672
     19 O         137.3783  142.2886  163.0724 O.2     1  UNL1       -0.2682
     20 H         140.3443  140.5518  162.4930 H       1  UNL1        0.1552
     21 C         138.7897  140.9151  164.7668 C.ar    1  UNL1        0.1347
     22 C         138.1287  139.6395  165.1984 C.ar    1  UNL1        0.0238
     23 C         138.3430  139.1167  166.5880 C.ar    1  UNL1        0.0032
     24 C         139.2181  139.8694  167.5459 C.ar    1  UNL1        0.0231
     25 C         139.8791  141.1449  167.1143 C.ar    1  UNL1        0.1527
     26 N         139.6648  141.6677  165.7248 N.ar    1  UNL1       -0.2368
     27 C         140.7542  141.8976  168.0722 C.3     1  UNL1        0.4348
     28 F         141.6293  142.6502  169.0301 F       1  UNL1       -0.1644
     29 F         140.3534  143.1893  167.4235 F       1  UNL1       -0.1644
     30 F         141.1550  140.6059  168.7209 F       1  UNL1       -0.1644
     31 C         136.4275  141.0050  156.8453 C.3     1  UNL1        0.2525
     32 O         137.6782  140.4846  157.4894 O.3     1  UNL1       -0.4698
@<TRIPOS>BOND
     1    31    32    1
     2    32     1    1
     3     1     2   ar
     4     2     3   ar
     5     3    17    1
     6    17    18   am
     7    18    19    2
     8    18    21    1
     9    21    22   ar
    10    22    23   ar
    11    23    24   ar
    12    24    25   ar
    13    25    27    1
    14    27    28    1
    15    27    29    1
    16    27    30    1
    17    25    26   ar
    18     3     4   ar
    19     4     5   ar
    20     5     6   ar
    21     6     7   ar
    22     7    10    1
    23    10    11    1
    24    11    12    1
    25    12    13    1
    26    13    14    1
    27    13    15    1
    28    15    16    1
    29     7     8   ar
    30     8     9   ar
    31     9     1   ar
    32    26    21   ar
    33     9     5   ar
    34    16    10    1
    35    17    20    1
@<TRIPOS>MOLECULE
*****
 32 35 0 0 0
SMALL
GASTEIGER

@<TRIPOS>ATOM
      1 C         139.3641  143.7147  161.1200 C.ar    1  UNL1        0.1592
      2 C         139.5967  143.4506  162.5782 C.ar    1  UNL1        0.0532
      3 C         139.3241  142.0897  163.1467 C.ar    1  UNL1        0.0538
      4 C         138.8188  140.9926  162.2572 C.ar    1  UNL1        0.0180
      5 C         138.5862  141.2567  160.7991 C.ar    1  UNL1        0.0423
      6 C         138.0967  140.3787  159.6857 C.ar    1  UNL1        0.0966
      7 N         138.0669  141.1971  158.4290 N.ar    1  UNL1       -0.2512
      8 N         138.5379  142.5809  158.7657 N.ar    1  UNL1       -0.1662
      9 C         138.8589  142.6177  160.2305 C.ar    1  UNL1        0.1362
     10 C         137.6409  140.7162  157.0736 C.3     1  UNL1        0.1080
     11 C         138.5899  139.9199  156.2278 C.3     1  UNL1        0.0417
     12 C         138.1638  139.4390  154.8724 C.3     1  UNL1        0.0741
     13 N         136.7888  139.7544  154.3626 N.3     1  UNL1       -0.2714
     14 C         136.3627  139.2735  153.0072 C.3     1  UNL1        0.0896
     15 C         135.8398  140.5508  155.2084 C.3     1  UNL1        0.0741
     16 C         136.2659  141.0316  156.5638 C.3     1  UNL1        0.0417
     17 N         139.5567  141.8257  164.6050 N.am    1  UNL1       -0.2791
     18 C         140.8914  141.3264  165.0731 C.2     1  UNL1        0.2672
     19 O         141.9935  141.0911  164.0832 O.2     1  UNL1       -0.2682
     20 H         138.8333  141.9801  165.2547 H       1  UNL1        0.1552
     21 C         141.1241  141.0624  166.5313 C.ar    1  UNL1        0.1347
     22 C         142.0500  139.9612  166.9557 C.ar    1  UNL1        0.0238
     23 C         142.2826  139.6973  168.4139 C.ar    1  UNL1        0.0032
     24 C         141.5893  140.5344  169.4476 C.ar    1  UNL1        0.0231
     25 C         140.6633  141.6355  169.0231 C.ar    1  UNL1        0.1527
     26 N         140.4307  141.8995  167.5650 N.ar    1  UNL1       -0.2368
     27 C         139.9700  142.4727  170.0568 C.3     1  UNL1        0.4348
     28 F         139.2767  143.3098  171.0905 F       1  UNL1       -0.1644
     29 F         138.8706  141.4558  170.1429 F       1  UNL1       -0.1644
     30 F         141.0694  143.4895  169.9707 F       1  UNL1       -0.1644
     31 C         140.8924  145.3239  159.7691 C.3     1  UNL1        0.2525
     32 O         139.6368  145.0757  160.5514 O.3     1  UNL1       -0.4698
@<TRIPOS>BOND
     1    31    32    1
     2    32     1    1
     3     1     2   ar
     4     2     3   ar
     5     3    17    1
     6    17    18   am
     7    18    19    2
     8    18    21    1
     9    21    22   ar
    10    22    23   ar
    11    23    24   ar
    12    24    25   ar
    13    25    27    1
    14    27    28    1
    15    27    29    1
    16    27    30    1
    17    25    26   ar
    18     3     4   ar
    19     4     5   ar
    20     5     6   ar
    21     6     7   ar
    22     7    10    1
    23    10    11    1
    24    11    12    1
    25    12    13    1
    26    13    14    1
    27    13    15    1
    28    15    16    1
    29     7     8   ar
    30     8     9   ar
    31     9     1   ar
    32    26    21   ar
    33     9     5   ar
    34    16    10    1
    35    17    20    1
@<TRIPOS>MOLECULE
*****
 32 35 0 0 0
SMALL
GASTEIGER

@<TRIPOS>ATOM
      1 C         143.1722  141.4495  161.3498 C.ar    1  UNL1        0.1592
      2 C         142.8972  141.2399  162.8094 C.ar    1  UNL1        0.0532
      3 C         141.9101  142.1174  163.5202 C.ar    1  UNL1        0.0538
      4 C         141.1977  143.2046  162.7714 C.ar    1  UNL1        0.0180
      5 C         141.4727  143.4143  161.3119 C.ar    1  UNL1        0.0423
      6 C         140.9275  144.3976  160.3190 C.ar    1  UNL1        0.0966
      7 N         141.5777  144.1277  158.9945 N.ar    1  UNL1       -0.2512
      8 N         142.5248  142.9776  159.1688 N.ar    1  UNL1       -0.1662
      9 C         142.4599  142.5367  160.6010 C.ar    1  UNL1        0.1362
     10 C         141.3252  144.8764  157.7194 C.3     1  UNL1        0.1080
     11 C         140.2244  145.8930  157.6521 C.3     1  UNL1        0.0417
     12 C         139.9720  146.6417  156.3770 C.3     1  UNL1        0.0741
     13 N         140.8203  146.3738  155.1693 N.3     1  UNL1       -0.2714
     14 C         140.5679  147.1226  153.8943 C.3     1  UNL1        0.0896
     15 C         141.9212  145.3572  155.2367 C.3     1  UNL1        0.0741
     16 C         142.1736  144.6085  156.5118 C.3     1  UNL1        0.0417
     17 N         141.6351  141.9077  164.9799 N.am    1  UNL1       -0.2791
     18 C         142.6397  142.3480  166.0031 C.2     1  UNL1        0.2672
     19 O         143.9192  142.9978  165.5667 O.2     1  UNL1       -0.2682
     20 H         140.7953  141.4812  165.2663 H       1  UNL1        0.1552
     21 C         142.3648  142.1383  167.4627 C.ar    1  UNL1        0.1347
     22 C         143.4387  142.4084  168.4745 C.ar    1  UNL1        0.0238
     23 C         143.1636  142.1987  169.9342 C.ar    1  UNL1        0.0032
     24 C         141.8148  141.7190  170.3819 C.ar    1  UNL1        0.0231
     25 C         140.7409  141.4490  169.3700 C.ar    1  UNL1        0.1527
     26 N         141.0159  141.6586  167.9105 N.ar    1  UNL1       -0.2368
     27 C         139.3921  140.9693  169.8178 C.3     1  UNL1        0.4348
     28 F         138.0432  140.4896  170.2656 F       1  UNL1       -0.1644
     29 F         139.1488  142.2855  170.4949 F       1  UNL1       -0.1644
     30 F         139.6354  139.6531  169.1407 F       1  UNL1       -0.1644
     31 C         143.7845  139.1672  160.2699 C.3     1  UNL1        0.2525
     32 O         144.1594  140.5719  160.6390 O.3     1  UNL1       -0.4698
@<TRIPOS>BOND
     1    31    32    1
     2    32     1    1
     3     1     2   ar
     4     2     3   ar
     5     3    17    1
     6    17    18   am
     7    18    19    2
     8    18    21    1
     9    21    22   ar
    10    22    23   ar
    11    23    24   ar
    12    24    25   ar
    13    25    27    1
    14    27    28    1
    15    27    29    1
    16    27    30    1
    17    25    26   ar
    18     3     4   ar
    19     4     5   ar
    20     5     6   ar
    21     6     7   ar
    22     7    10    1
    23    10    11    1
    24    11    12    1
    25    12    13    1
    26    13    14    1
    27    13    15    1
    28    15    16    1
    29     7     8   ar
    30     8     9   ar
    31     9     1   ar
    32    26    21   ar
    33     9     5   ar
    34    16    10    1
    35    17    20    1
@<TRIPOS>MOLECULE
*****
 32 35 0 0 0
SMALL
GASTEIGER

@<TRIPOS>ATOM
      1 C         141.4738  141.1725  161.4555 C.ar    1  UNL1        0.1592
      2 C         140.9599  141.8524  160.2211 C.ar    1  UNL1        0.0532
      3 C         140.2980  143.1944  160.3245 C.ar    1  UNL1        0.0538
      4 C         140.1501  143.8567  161.6623 C.ar    1  UNL1        0.0180
      5 C         140.6640  143.1768  162.8966 C.ar    1  UNL1        0.0423
      6 C         140.6604  143.5818  164.3409 C.ar    1  UNL1        0.0966
      7 N         141.3201  142.4900  165.1301 N.ar    1  UNL1       -0.2512
      8 N         141.7314  141.4102  164.1736 N.ar    1  UNL1       -0.1662
      9 C         141.3259  141.8347  162.7932 C.ar    1  UNL1        0.1362
     10 C         141.5314  142.4798  166.6151 C.3     1  UNL1        0.1080
     11 C         142.8814  142.1476  167.1783 C.3     1  UNL1        0.0417
     12 C         143.0926  142.1374  168.6633 C.3     1  UNL1        0.0741
     13 N         141.9540  142.4593  169.5852 N.3     1  UNL1       -0.2714
     14 C         142.1653  142.4491  171.0702 C.3     1  UNL1        0.0896
     15 C         140.6040  142.7916  169.0220 C.3     1  UNL1        0.0741
     16 C         140.3928  142.8018  167.5369 C.3     1  UNL1        0.0417
     17 N         139.7841  143.8743  159.0901 N.am    1  UNL1       -0.2791
     18 C         140.5785  144.9770  158.4553 C.2     1  UNL1        0.2672
     19 O         141.8869  145.3997  159.0547 O.2     1  UNL1       -0.2682
     20 H         138.9253  143.5969  158.6967 H       1  UNL1        0.1552
     21 C         140.0646  145.6569  157.2209 C.ar    1  UNL1        0.1347
     22 C         140.0526  144.9252  155.9115 C.ar    1  UNL1        0.0238
     23 C         139.5386  145.6053  154.6772 C.ar    1  UNL1        0.0032
     24 C         139.0367  147.0168  154.7523 C.ar    1  UNL1        0.0231
     25 C         139.0488  147.7484  156.0618 C.ar    1  UNL1        0.1527
     26 N         139.5628  147.0684  157.2960 N.ar    1  UNL1       -0.2368
     27 C         138.5470  149.1599  156.1368 C.3     1  UNL1        0.4348
     28 F         138.0451  150.5715  156.2119 F       1  UNL1       -0.1644
     29 F         138.1798  148.9528  157.5764 F       1  UNL1       -0.1644
     30 F         138.9141  149.3671  154.6973 F       1  UNL1       -0.1644
     31 C         141.4807  138.6227  161.9541 C.3     1  UNL1        0.2525
     32 O         142.1357  139.8304  161.3520 O.3     1  UNL1       -0.4698
@<TRIPOS>BOND
     1    31    32    1
     2    32     1    1
     3     1     2   ar
     4     2     3   ar
     5     3    17    1
     6    17    18   am
     7    18    19    2
     8    18    21    1
     9    21    22   ar
    10    22    23   ar
    11    23    24   ar
    12    24    25   ar
    13    25    27    1
    14    27    28    1
    15    27    29    1
    16    27    30    1
    17    25    26   ar
    18     3     4   ar
    19     4     5   ar
    20     5     6   ar
    21     6     7   ar
    22     7    10    1
    23    10    11    1
    24    11    12    1
    25    12    13    1
    26    13    14    1
    27    13    15    1
    28    15    16    1
    29     7     8   ar
    30     8     9   ar
    31     9     1   ar
    32    26    21   ar
    33     9     5   ar
    34    16    10    1
    35    17    20    1
