@<TRIPOS>MOLECULE
*****
 34 36 0 0 0
SMALL
GASTEIGER

@<TRIPOS>ATOM
      1 C         143.0466  142.7444  164.3955 C.3     1  UNL1        0.0690
      2 C         142.4279  144.1055  164.5160 C.3     1  UNL1        0.0485
      3 C         142.6629  145.1333  163.4491 C.3     1  UNL1        0.1436
      4 O         143.5167  144.7999  162.2616 O.3     1  UNL1       -0.3537
      5 C         144.1355  143.4389  162.1412 C.3     1  UNL1        0.1436
      6 C         143.9004  142.4111  163.2081 C.3     1  UNL1        0.0485
      7 N         142.3201  142.5859  165.6983 N.3     1  UNL1       -0.2710
      8 C         140.8573  142.9064  165.7851 C.3     1  UNL1        0.0896
      9 C         140.1309  142.7479  167.0878 C.3     1  UNL1        0.0897
     10 N         140.8672  142.2688  168.3037 N.3     1  UNL1       -0.2683
     11 C         142.3299  141.9482  168.2169 C.3     1  UNL1        0.0897
     12 C         143.0564  142.1068  166.9142 C.3     1  UNL1        0.0896
     13 C         140.1406  142.1102  169.6064 C.3     1  UNL1        0.0993
     14 C         140.1448  140.7862  170.3112 C.3     1  UNL1        0.1031
     15 C         139.1985  140.2370  169.2850 C.3     1  UNL1        0.0307
     16 C         141.0910  141.3353  171.3373 C.3     1  UNL1        0.0307
     17 O         140.1490  139.4620  171.0160 O.3     1  UNL1       -0.3854
     18 H         139.5729  138.8418  170.5423 H       1  UNL1        0.2103
     19 C         143.4131  141.3282  164.7275 C.3     1  UNL1        0.1143
     20 C         143.6759  139.1853  163.2823 C.2     1  UNL1        0.2304
     21 O         145.1683  139.3088  163.3707 O.2     1  UNL1       -0.2745
     22 N         142.7984  140.1950  163.9608 N.am    1  UNL1       -0.2425
     23 C         141.3060  140.0715  163.8724 C.ar    1  UNL1        0.1373
     24 C         140.5618  140.7506  162.7611 C.ar    1  UNL1        0.0347
     25 C         139.0695  140.6271  162.6728 C.ar    1  UNL1        0.0044
     26 C         138.3215  139.8246  163.6957 C.ar    1  UNL1        0.0232
     27 C         139.0658  139.1456  164.8070 C.ar    1  UNL1        0.1540
     28 N         140.5580  139.2690  164.8954 N.ar    1  UNL1       -0.2263
     29 C         138.3177  138.3430  165.8300 C.3     1  UNL1        0.4349
     30 F         137.5697  137.5404  166.8529 F       1  UNL1       -0.1644
     31 F         137.6095  139.5842  166.2858 F       1  UNL1       -0.1644
     32 F         139.0260  137.1018  165.3741 F       1  UNL1       -0.1644
     33 C         143.3286  137.9081  161.0466 C.3     1  UNL1        0.0101
     34 C         143.0613  138.0520  162.5156 C.3     1  UNL1        0.0857
@<TRIPOS>BOND
     1    33    34    1
     2    34    20    1
     3    20    21    2
     4    20    22   am
     5    22    19    1
     6    19     1    1
     7     1     7    1
     8     7     8    1
     9     8     9    1
    10     9    10    1
    11    10    13    1
    12    13    14    1
    13    14    15    1
    14    14    16    1
    15    14    17    1
    16    10    11    1
    17    11    12    1
    18     1     2    1
    19     2     3    1
    20     3     4    1
    21     4     5    1
    22     5     6    1
    23    22    23    1
    24    23    24   ar
    25    24    25   ar
    26    25    26   ar
    27    26    27   ar
    28    27    29    1
    29    29    30    1
    30    29    31    1
    31    29    32    1
    32    27    28   ar
    33     6     1    1
    34    28    23   ar
    35    12     7    1
    36    17    18    1
@<TRIPOS>MOLECULE
*****
 34 36 0 0 0
SMALL
GASTEIGER

@<TRIPOS>ATOM
      1 C         142.2164  139.2605  164.1325 C.3     1  UNL1        0.0690
      2 C         141.0692  138.3071  164.2898 C.3     1  UNL1        0.0485
      3 C         140.8010  137.2756  163.2343 C.3     1  UNL1        0.1436
      4 O         141.6800  137.1976  162.0214 O.3     1  UNL1       -0.3537
      5 C         142.8273  138.1510  161.8640 C.3     1  UNL1        0.1436
      6 C         143.0955  139.1824  162.9195 C.3     1  UNL1        0.0485
      7 N         141.6699  139.7257  165.4496 N.3     1  UNL1       -0.2710
      8 C         140.2013  139.9906  165.6008 C.3     1  UNL1        0.0896
      9 C         139.6548  140.4559  166.9180 C.3     1  UNL1        0.0897
     10 N         140.5770  140.6563  168.0839 N.3     1  UNL1       -0.2683
     11 C         142.0457  140.3914  167.9327 C.3     1  UNL1        0.0897
     12 C         142.5921  139.9262  166.6156 C.3     1  UNL1        0.0896
     13 C         140.0305  141.1216  169.4011 C.3     1  UNL1        0.0993
     14 C         140.8170  142.0831  170.2419 C.3     1  UNL1        0.1031
     15 C         141.1667  140.9713  171.1861 C.3     1  UNL1        0.0307
     16 C         140.4672  143.1948  169.2976 C.3     1  UNL1        0.0307
     17 O         141.6034  143.0447  171.0826 O.3     1  UNL1       -0.3854
     18 H         141.9862  142.5741  171.8396 H       1  UNL1        0.2103
     19 C         143.1739  140.3755  164.4325 C.3     1  UNL1        0.1143
     20 C         144.3102  142.4237  163.3084 C.2     1  UNL1        0.2304
     21 O         145.6584  141.8728  163.6675 O.2     1  UNL1       -0.2745
     22 N         143.0680  141.6750  163.6909 N.am    1  UNL1       -0.2425
     23 C         141.7198  142.2259  163.3318 C.ar    1  UNL1        0.1373
     24 C         141.1346  141.9533  161.9779 C.ar    1  UNL1        0.0347
     25 C         139.7864  142.5042  161.6188 C.ar    1  UNL1        0.0044
     26 C         139.0235  143.3276  162.6137 C.ar    1  UNL1        0.0232
     27 C         139.6087  143.6002  163.9676 C.ar    1  UNL1        0.1540
     28 N         140.9568  143.0493  164.3267 N.ar    1  UNL1       -0.2263
     29 C         138.8457  144.4236  164.9625 C.3     1  UNL1        0.4349
     30 F         138.0827  145.2471  165.9575 F       1  UNL1       -0.1644
     31 F         137.8816  144.8293  163.8874 F       1  UNL1       -0.1644
     32 F         139.8097  144.0179  166.0377 F       1  UNL1       -0.1644
     33 C         143.8830  144.9864  163.3091 C.3     1  UNL1        0.0101
     34 C         144.2044  143.7232  162.5668 C.3     1  UNL1        0.0857
@<TRIPOS>BOND
     1    33    34    1
     2    34    20    1
     3    20    21    2
     4    20    22   am
     5    22    19    1
     6    19     1    1
     7     1     7    1
     8     7     8    1
     9     8     9    1
    10     9    10    1
    11    10    13    1
    12    13    14    1
    13    14    15    1
    14    14    16    1
    15    14    17    1
    16    10    11    1
    17    11    12    1
    18     1     2    1
    19     2     3    1
    20     3     4    1
    21     4     5    1
    22     5     6    1
    23    22    23    1
    24    23    24   ar
    25    24    25   ar
    26    25    26   ar
    27    26    27   ar
    28    27    29    1
    29    29    30    1
    30    29    31    1
    31    29    32    1
    32    27    28   ar
    33     6     1    1
    34    28    23   ar
    35    12     7    1
    36    17    18    1
@<TRIPOS>MOLECULE
*****
 34 36 0 0 0
SMALL
GASTEIGER

@<TRIPOS>ATOM
      1 C         142.9933  141.9703  163.8169 C.3     1  UNL1        0.0690
      2 C         144.1901  141.6450  164.6605 C.3     1  UNL1        0.0485
      3 C         145.5303  141.4474  164.0165 C.3     1  UNL1        0.1436
      4 O         145.6736  141.5750  162.5288 O.3     1  UNL1       -0.3537
      5 C         144.4768  141.9003  161.6852 C.3     1  UNL1        0.1436
      6 C         143.1366  142.0980  162.3292 C.3     1  UNL1        0.0485
      7 N         142.3576  141.9536  165.1755 N.3     1  UNL1       -0.2710
      8 C         142.8001  140.9496  166.1983 C.3     1  UNL1        0.0896
      9 C         142.1644  140.9330  167.5568 C.3     1  UNL1        0.0897
     10 N         141.0862  141.9203  167.8925 N.3     1  UNL1       -0.2683
     11 C         140.6437  142.9243  166.8697 C.3     1  UNL1        0.0897
     12 C         141.2794  142.9409  165.5112 C.3     1  UNL1        0.0896
     13 C         140.4505  141.9036  169.2511 C.3     1  UNL1        0.0993
     14 C         140.3863  140.6254  170.0334 C.3     1  UNL1        0.1031
     15 C         141.5043  141.1060  170.9104 C.3     1  UNL1        0.0307
     16 C         139.2683  140.1448  169.1565 C.3     1  UNL1        0.0307
     17 O         140.3221  139.3472  170.8158 O.3     1  UNL1       -0.3854
     18 H         140.9899  139.3647  171.5191 H       1  UNL1        0.2103
     19 C         141.5756  142.2898  163.4451 C.3     1  UNL1        0.1143
     20 C         140.0590  141.5414  161.4729 C.2     1  UNL1        0.2304
     21 O         140.2539  142.8761  160.8166 O.2     1  UNL1       -0.2745
     22 N         140.7199  141.2483  162.7872 N.am    1  UNL1       -0.2425
     23 C         140.5250  139.9136  163.4435 C.ar    1  UNL1        0.1373
     24 C         141.4232  138.7656  163.0897 C.ar    1  UNL1        0.0347
     25 C         141.2283  137.4309  163.7461 C.ar    1  UNL1        0.0044
     26 C         140.1352  137.2444  164.7562 C.ar    1  UNL1        0.0232
     27 C         139.2370  138.3925  165.1099 C.ar    1  UNL1        0.1540
     28 N         139.4319  139.7271  164.4537 N.ar    1  UNL1       -0.2263
     29 C         138.1438  138.2059  166.1201 C.3     1  UNL1        0.4349
     30 F         137.0507  138.0194  167.1302 F       1  UNL1       -0.1644
     31 F         137.9704  139.6933  166.2070 F       1  UNL1       -0.1644
     32 F         138.3173  136.7185  166.0332 F       1  UNL1       -0.1644
     33 C         137.7437  140.4081  161.1486 C.3     1  UNL1        0.0101
     34 C         139.2032  140.4999  160.8149 C.3     1  UNL1        0.0857
@<TRIPOS>BOND
     1    33    34    1
     2    34    20    1
     3    20    21    2
     4    20    22   am
     5    22    19    1
     6    19     1    1
     7     1     7    1
     8     7     8    1
     9     8     9    1
    10     9    10    1
    11    10    13    1
    12    13    14    1
    13    14    15    1
    14    14    16    1
    15    14    17    1
    16    10    11    1
    17    11    12    1
    18     1     2    1
    19     2     3    1
    20     3     4    1
    21     4     5    1
    22     5     6    1
    23    22    23    1
    24    23    24   ar
    25    24    25   ar
    26    25    26   ar
    27    26    27   ar
    28    27    29    1
    29    29    30    1
    30    29    31    1
    31    29    32    1
    32    27    28   ar
    33     6     1    1
    34    28    23   ar
    35    12     7    1
    36    17    18    1
@<TRIPOS>MOLECULE
*****
 34 36 0 0 0
SMALL
GASTEIGER

@<TRIPOS>ATOM
      1 C         143.1192  140.4072  164.2717 C.3     1  UNL1        0.0690
      2 C         144.0189  141.4942  164.7806 C.3     1  UNL1        0.0485
      3 C         145.1989  141.9340  163.9656 C.3     1  UNL1        0.1436
      4 O         145.4792  141.2867  162.6417 O.3     1  UNL1       -0.3537
      5 C         144.5795  140.1998  162.1329 C.3     1  UNL1        0.1436
      6 C         143.3995  139.7600  162.9478 C.3     1  UNL1        0.0485
      7 N         142.4452  140.7139  165.5762 N.3     1  UNL1       -0.2710
      8 C         142.0791  142.1280  165.9171 C.3     1  UNL1        0.0896
      9 C         141.4051  142.4346  167.2215 C.3     1  UNL1        0.0897
     10 N         141.0971  141.3271  168.1851 N.3     1  UNL1       -0.2683
     11 C         141.4632  139.9130  167.8443 C.3     1  UNL1        0.0897
     12 C         142.1372  139.6064  166.5399 C.3     1  UNL1        0.0896
     13 C         140.4231  141.6337  169.4897 C.3     1  UNL1        0.0993
     14 C         140.1442  140.5308  170.4673 C.3     1  UNL1        0.1031
     15 C         141.4903  140.7454  171.0933 C.3     1  UNL1        0.0307
     16 C         138.7981  140.3162  169.8412 C.3     1  UNL1        0.0307
     17 O         139.8653  139.4278  171.4449 O.3     1  UNL1       -0.3854
     18 H         140.6259  139.3209  172.0373 H       1  UNL1        0.2103
     19 C         141.9854  139.4267  164.2159 C.3     1  UNL1        0.1143
     20 C         140.2694  138.4126  162.5495 C.2     1  UNL1        0.2304
     21 O         140.7540  137.0343  162.8893 O.2     1  UNL1       -0.2745
     22 N         140.8851  139.6088  163.2128 N.am    1  UNL1       -0.2425
     23 C         140.4005  140.9871  162.8730 C.ar    1  UNL1        0.1373
     24 C         140.8425  141.6447  161.5994 C.ar    1  UNL1        0.0347
     25 C         140.3579  143.0230  161.2596 C.ar    1  UNL1        0.0044
     26 C         139.4313  143.7437  162.1934 C.ar    1  UNL1        0.0232
     27 C         138.9893  143.0860  163.4670 C.ar    1  UNL1        0.1540
     28 N         139.4739  141.7078  163.8069 N.ar    1  UNL1       -0.2263
     29 C         138.0627  143.8067  164.4009 C.3     1  UNL1        0.4349
     30 F         137.1361  144.5274  165.3348 F       1  UNL1       -0.1644
     31 F         138.7826  145.0929  164.1226 F       1  UNL1       -0.1644
     32 F         137.3429  142.5205  164.6793 F       1  UNL1       -0.1644
     33 C         139.4702  138.5111  160.0794 C.3     1  UNL1        0.0101
     34 C         139.1691  138.5946  161.5465 C.3     1  UNL1        0.0857
@<TRIPOS>BOND
     1    33    34    1
     2    34    20    1
     3    20    21    2
     4    20    22   am
     5    22    19    1
     6    19     1    1
     7     1     7    1
     8     7     8    1
     9     8     9    1
    10     9    10    1
    11    10    13    1
    12    13    14    1
    13    14    15    1
    14    14    16    1
    15    14    17    1
    16    10    11    1
    17    11    12    1
    18     1     2    1
    19     2     3    1
    20     3     4    1
    21     4     5    1
    22     5     6    1
    23    22    23    1
    24    23    24   ar
    25    24    25   ar
    26    25    26   ar
    27    26    27   ar
    28    27    29    1
    29    29    30    1
    30    29    31    1
    31    29    32    1
    32    27    28   ar
    33     6     1    1
    34    28    23   ar
    35    12     7    1
    36    17    18    1
@<TRIPOS>MOLECULE
*****
 34 36 0 0 0
SMALL
GASTEIGER

@<TRIPOS>ATOM
      1 C         143.0059  140.4352  164.2093 C.3     1  UNL1        0.0690
      2 C         143.9021  141.5315  164.7042 C.3     1  UNL1        0.0485
      3 C         145.0647  141.9834  163.8710 C.3     1  UNL1        0.1436
      4 O         145.3310  141.3390  162.5429 O.3     1  UNL1       -0.3537
      5 C         144.4348  140.2428  162.0480 C.3     1  UNL1        0.1436
      6 C         143.2723  139.7908  162.8811 C.3     1  UNL1        0.0485
      7 N         142.3491  140.7350  165.5241 N.3     1  UNL1       -0.2710
      8 C         142.1041  139.6306  166.5091 C.3     1  UNL1        0.0896
      9 C         141.4472  139.9304  167.8239 C.3     1  UNL1        0.0897
     10 N         141.0354  141.3346  168.1537 N.3     1  UNL1       -0.2683
     11 C         141.2805  142.4389  167.1686 C.3     1  UNL1        0.0897
     12 C         141.9373  142.1391  165.8539 C.3     1  UNL1        0.0896
     13 C         140.3786  141.6343  169.4685 C.3     1  UNL1        0.0993
     14 C         140.1140  140.5265  170.4445 C.3     1  UNL1        0.1031
     15 C         141.4560  140.7594  171.0727 C.3     1  UNL1        0.0307
     16 C         138.7719  140.2936  169.8163 C.3     1  UNL1        0.0307
     17 O         139.8493  139.4186  171.4206 O.3     1  UNL1       -0.3854
     18 H         140.6105  139.3218  172.0140 H       1  UNL1        0.2103
     19 C         141.8816  139.4430  164.1710 C.3     1  UNL1        0.1143
     20 C         140.3064  138.6347  162.2697 C.2     1  UNL1        0.2304
     21 O         141.0854  137.3568  162.1676 O.2     1  UNL1       -0.2745
     22 N         140.7045  139.6777  163.2714 N.am    1  UNL1       -0.2425
     23 C         139.9255  140.9556  163.3735 C.ar    1  UNL1        0.1373
     24 C         138.7585  141.0495  164.3111 C.ar    1  UNL1        0.0347
     25 C         137.9795  142.3274  164.4132 C.ar    1  UNL1        0.0044
     26 C         138.3676  143.5111  163.5777 C.ar    1  UNL1        0.0232
     27 C         139.5346  143.4170  162.6401 C.ar    1  UNL1        0.1540
     28 N         140.3136  142.1393  162.5379 N.ar    1  UNL1       -0.2263
     29 C         139.9227  144.6009  161.8045 C.3     1  UNL1        0.4349
     30 F         140.3108  145.7846  160.9690 F       1  UNL1       -0.1644
     31 F         140.9656  143.7721  161.1150 F       1  UNL1       -0.1644
     32 F         138.8797  145.4295  162.4941 F       1  UNL1       -0.1644
     33 C         137.7731  138.3619  161.7614 C.3     1  UNL1        0.0101
     34 C         139.1293  138.8693  161.3700 C.3     1  UNL1        0.0857
@<TRIPOS>BOND
     1    33    34    1
     2    34    20    1
     3    20    21    2
     4    20    22   am
     5    22    19    1
     6    19     1    1
     7     1     7    1
     8     7     8    1
     9     8     9    1
    10     9    10    1
    11    10    13    1
    12    13    14    1
    13    14    15    1
    14    14    16    1
    15    14    17    1
    16    10    11    1
    17    11    12    1
    18     1     2    1
    19     2     3    1
    20     3     4    1
    21     4     5    1
    22     5     6    1
    23    22    23    1
    24    23    24   ar
    25    24    25   ar
    26    25    26   ar
    27    26    27   ar
    28    27    29    1
    29    29    30    1
    30    29    31    1
    31    29    32    1
    32    27    28   ar
    33     6     1    1
    34    28    23   ar
    35    12     7    1
    36    17    18    1
@<TRIPOS>MOLECULE
*****
 34 36 0 0 0
SMALL
GASTEIGER

@<TRIPOS>ATOM
      1 C         139.1597  140.4720  164.0818 C.3     1  UNL1        0.0690
      2 C         138.3628  141.6977  164.4170 C.3     1  UNL1        0.0485
      3 C         137.3020  142.1836  163.4743 C.3     1  UNL1        0.1436
      4 O         137.0382  141.4436  162.1964 O.3     1  UNL1       -0.3537
      5 C         137.8351  140.2179  161.8612 C.3     1  UNL1        0.1436
      6 C         138.8959  139.7321  162.8039 C.3     1  UNL1        0.0485
      7 N         139.7745  140.8293  165.4026 N.3     1  UNL1       -0.2710
      8 C         140.0992  142.2597  165.7163 C.3     1  UNL1        0.0896
      9 C         140.7139  142.6169  167.0371 C.3     1  UNL1        0.0897
     10 N         141.0040  141.5437  168.0441 N.3     1  UNL1       -0.2683
     11 C         140.6793  140.1133  167.7304 C.3     1  UNL1        0.0897
     12 C         140.0646  139.7561  166.4097 C.3     1  UNL1        0.0896
     13 C         141.6188  141.9010  169.3649 C.3     1  UNL1        0.0993
     14 C         141.0920  141.2869  170.6280 C.3     1  UNL1        0.1031
     15 C         139.8448  142.1116  170.5088 C.3     1  UNL1        0.0307
     16 C         142.3392  140.4621  170.7472 C.3     1  UNL1        0.0307
     17 O         140.5653  140.6727  171.8912 O.3     1  UNL1       -0.3854
     18 H         139.6913  141.0432  172.0908 H       1  UNL1        0.2103
     19 C         140.1702  139.3703  164.2053 C.3     1  UNL1        0.1143
     20 C         141.8975  138.0654  162.7688 C.2     1  UNL1        0.2304
     21 O         141.2017  136.7787  163.1009 O.2     1  UNL1       -0.2745
     22 N         141.3817  139.3612  163.3210 N.am    1  UNL1       -0.2425
     23 C         142.0776  140.6479  162.9889 C.ar    1  UNL1        0.1373
     24 C         141.9453  141.2395  161.6169 C.ar    1  UNL1        0.0347
     25 C         142.6411  142.5262  161.2847 C.ar    1  UNL1        0.0044
     26 C         143.4691  143.2212  162.3246 C.ar    1  UNL1        0.0232
     27 C         143.6013  142.6295  163.6966 C.ar    1  UNL1        0.1540
     28 N         142.9056  141.3429  164.0288 N.ar    1  UNL1       -0.2263
     29 C         144.4294  143.3246  164.7366 C.3     1  UNL1        0.4349
     30 F         145.2574  144.0195  165.7765 F       1  UNL1       -0.1644
     31 F         143.5576  144.5395  164.6186 F       1  UNL1       -0.1644
     32 F         145.3011  142.1096  164.8544 F       1  UNL1       -0.1644
     33 C         142.9821  137.6639  160.4423 C.3     1  UNL1        0.0101
     34 C         143.1090  138.0563  161.8845 C.3     1  UNL1        0.0857
@<TRIPOS>BOND
     1    33    34    1
     2    34    20    1
     3    20    21    2
     4    20    22   am
     5    22    19    1
     6    19     1    1
     7     1     7    1
     8     7     8    1
     9     8     9    1
    10     9    10    1
    11    10    13    1
    12    13    14    1
    13    14    15    1
    14    14    16    1
    15    14    17    1
    16    10    11    1
    17    11    12    1
    18     1     2    1
    19     2     3    1
    20     3     4    1
    21     4     5    1
    22     5     6    1
    23    22    23    1
    24    23    24   ar
    25    24    25   ar
    26    25    26   ar
    27    26    27   ar
    28    27    29    1
    29    29    30    1
    30    29    31    1
    31    29    32    1
    32    27    28   ar
    33     6     1    1
    34    28    23   ar
    35    12     7    1
    36    17    18    1
@<TRIPOS>MOLECULE
*****
 34 36 0 0 0
SMALL
GASTEIGER

@<TRIPOS>ATOM
      1 C         140.1083  139.2717  164.3063 C.3     1  UNL1        0.0690
      2 C         141.0094  138.0833  164.4661 C.3     1  UNL1        0.0485
      3 C         141.0709  137.0388  163.3913 C.3     1  UNL1        0.1436
      4 O         140.2312  137.1827  162.1567 O.3     1  UNL1       -0.3537
      5 C         139.3301  138.3711  161.9969 C.3     1  UNL1        0.1436
      6 C         139.2686  139.4157  163.0717 C.3     1  UNL1        0.0485
      7 N         140.7072  139.5774  165.6472 N.3     1  UNL1       -0.2710
      8 C         142.1805  139.4026  165.8680 C.3     1  UNL1        0.0896
      9 C         142.7793  139.7083  167.2088 C.3     1  UNL1        0.0897
     10 N         141.9049  140.1889  168.3288 N.3     1  UNL1       -0.2683
     11 C         140.4316  140.3637  168.1080 C.3     1  UNL1        0.0897
     12 C         139.8328  140.0580  166.7672 C.3     1  UNL1        0.0896
     13 C         142.5038  140.4946  169.6697 C.3     1  UNL1        0.0993
     14 C         142.3546  141.8641  170.2631 C.3     1  UNL1        0.1031
     15 C         141.3264  141.3375  171.2199 C.3     1  UNL1        0.0307
     16 C         143.3828  142.3906  169.3064 C.3     1  UNL1        0.0307
     17 O         142.2055  143.2337  170.8565 O.3     1  UNL1       -0.3854
     18 H         141.5465  143.2079  171.5678 H       1  UNL1        0.2103
     19 C         139.4151  140.5664  164.6122 C.3     1  UNL1        0.1143
     20 C         138.5273  142.6049  163.2683 C.2     1  UNL1        0.2304
     21 O         137.1200  142.2259  163.6231 O.2     1  UNL1       -0.2745
     22 N         139.6748  141.7751  163.7628 N.am    1  UNL1       -0.2425
     23 C         141.0822  142.1541  163.4079 C.ar    1  UNL1        0.1373
     24 C         141.5856  141.9443  162.0106 C.ar    1  UNL1        0.0347
     25 C         142.9930  142.3233  161.6558 C.ar    1  UNL1        0.0044
     26 C         143.8967  142.9120  162.6982 C.ar    1  UNL1        0.0232
     27 C         143.3931  143.1217  164.0955 C.ar    1  UNL1        0.1540
     28 N         141.9859  142.7427  164.4504 N.ar    1  UNL1       -0.2263
     29 C         144.2969  143.7104  165.1380 C.3     1  UNL1        0.4349
     30 F         145.2006  144.2991  166.1805 F       1  UNL1       -0.1644
     31 F         144.2938  145.0176  164.4024 F       1  UNL1       -0.1644
     32 F         144.2999  142.4032  165.8736 F       1  UNL1       -0.1644
     33 C         139.1630  145.1155  163.0620 C.3     1  UNL1        0.0101
     34 C         138.7869  143.8136  162.4189 C.3     1  UNL1        0.0857
@<TRIPOS>BOND
     1    33    34    1
     2    34    20    1
     3    20    21    2
     4    20    22   am
     5    22    19    1
     6    19     1    1
     7     1     7    1
     8     7     8    1
     9     8     9    1
    10     9    10    1
    11    10    13    1
    12    13    14    1
    13    14    15    1
    14    14    16    1
    15    14    17    1
    16    10    11    1
    17    11    12    1
    18     1     2    1
    19     2     3    1
    20     3     4    1
    21     4     5    1
    22     5     6    1
    23    22    23    1
    24    23    24   ar
    25    24    25   ar
    26    25    26   ar
    27    26    27   ar
    28    27    29    1
    29    29    30    1
    30    29    31    1
    31    29    32    1
    32    27    28   ar
    33     6     1    1
    34    28    23   ar
    35    12     7    1
    36    17    18    1
@<TRIPOS>MOLECULE
*****
 34 36 0 0 0
SMALL
GASTEIGER

@<TRIPOS>ATOM
      1 C         141.4234  143.1244  163.5867 C.3     1  UNL1        0.0690
      2 C         142.8651  143.2939  163.9645 C.3     1  UNL1        0.0485
      3 C         143.8401  143.8521  162.9708 C.3     1  UNL1        0.1436
      4 O         143.3735  144.2409  161.5992 O.3     1  UNL1       -0.3537
      5 C         141.9318  144.0715  161.2214 C.3     1  UNL1        0.1436
      6 C         140.9567  143.5132  162.2152 C.3     1  UNL1        0.0485
      7 N         141.3846  142.6153  164.9972 N.3     1  UNL1       -0.2710
      8 C         140.3918  143.1780  165.9707 C.3     1  UNL1        0.0896
      9 C         140.3531  142.6690  167.3811 C.3     1  UNL1        0.0897
     10 N         141.3072  141.5972  167.8180 N.3     1  UNL1       -0.2683
     11 C         142.3000  141.0345  166.8446 C.3     1  UNL1        0.0897
     12 C         142.3387  141.5436  165.4342 C.3     1  UNL1        0.0896
     13 C         141.2684  141.0881  169.2285 C.3     1  UNL1        0.0993
     14 C         142.5473  140.7939  169.9551 C.3     1  UNL1        0.1031
     15 C         142.2584  139.3245  169.8684 C.3     1  UNL1        0.0307
     16 C         142.8361  142.2632  170.0417 C.3     1  UNL1        0.0307
     17 O         143.8262  140.4997  170.6817 O.3     1  UNL1       -0.3854
     18 H         143.9258  139.5404  170.7855 H       1  UNL1        0.2103
     19 C         139.9682  142.7782  163.6988 C.3     1  UNL1        0.1143
     20 C         138.2810  141.6467  162.0792 C.2     1  UNL1        0.2304
     21 O         137.6564  142.9811  161.7976 O.2     1  UNL1       -0.2745
     22 N         139.4369  141.5453  163.0298 N.am    1  UNL1       -0.2425
     23 C         140.0615  140.2108  163.3113 C.ar    1  UNL1        0.1373
     24 C         139.4781  139.3172  164.3654 C.ar    1  UNL1        0.0347
     25 C         140.1027  137.9827  164.6469 C.ar    1  UNL1        0.0044
     26 C         141.3106  137.5421  163.8744 C.ar    1  UNL1        0.0232
     27 C         141.8939  138.4358  162.8204 C.ar    1  UNL1        0.1540
     28 N         141.2694  139.7702  162.5388 N.ar    1  UNL1       -0.2263
     29 C         143.1019  137.9951  162.0479 C.3     1  UNL1        0.4349
     30 F         144.3099  137.5545  161.2754 F       1  UNL1       -0.1644
     31 F         142.2128  137.3679  161.0155 F       1  UNL1       -0.1644
     32 F         143.9910  138.6224  163.0804 F       1  UNL1       -0.1644
     33 C         138.1821  140.0720  160.0151 C.3     1  UNL1        0.0101
     34 C         137.7497  140.4138  161.4101 C.3     1  UNL1        0.0857
@<TRIPOS>BOND
     1    33    34    1
     2    34    20    1
     3    20    21    2
     4    20    22   am
     5    22    19    1
     6    19     1    1
     7     1     7    1
     8     7     8    1
     9     8     9    1
    10     9    10    1
    11    10    13    1
    12    13    14    1
    13    14    15    1
    14    14    16    1
    15    14    17    1
    16    10    11    1
    17    11    12    1
    18     1     2    1
    19     2     3    1
    20     3     4    1
    21     4     5    1
    22     5     6    1
    23    22    23    1
    24    23    24   ar
    25    24    25   ar
    26    25    26   ar
    27    26    27   ar
    28    27    29    1
    29    29    30    1
    30    29    31    1
    31    29    32    1
    32    27    28   ar
    33     6     1    1
    34    28    23   ar
    35    12     7    1
    36    17    18    1
@<TRIPOS>MOLECULE
*****
 34 36 0 0 0
SMALL
GASTEIGER

@<TRIPOS>ATOM
      1 C         141.8541  142.7629  164.1731 C.3     1  UNL1        0.0690
      2 C         140.5947  143.4508  164.6095 C.3     1  UNL1        0.0485
      3 C         139.9906  144.5237  163.7529 C.3     1  UNL1        0.1436
      4 O         140.6461  144.9088  162.4598 O.3     1  UNL1       -0.3537
      5 C         141.9055  144.2209  162.0233 C.3     1  UNL1        0.1436
      6 C         142.5096  143.1480  162.8800 C.3     1  UNL1        0.0485
      7 N         141.6062  142.0533  165.4713 N.3     1  UNL1       -0.2710
      8 C         140.2290  141.5626  165.8067 C.3     1  UNL1        0.0896
      9 C         139.9812  140.8530  167.1047 C.3     1  UNL1        0.0897
     10 N         141.1105  140.6343  168.0675 N.3     1  UNL1       -0.2683
     11 C         142.4876  141.1250  167.7321 C.3     1  UNL1        0.0897
     12 C         142.7355  141.8346  166.4340 C.3     1  UNL1        0.0896
     13 C         140.8625  139.9247  169.3656 C.3     1  UNL1        0.0993
     14 C         141.6204  140.3259  170.5963 C.3     1  UNL1        0.1031
     15 C         142.5654  139.1798  170.3879 C.3     1  UNL1        0.0307
     16 C         140.6754  141.4719  170.8046 C.3     1  UNL1        0.0307
     17 O         142.3783  140.7271  171.8270 O.3     1  UNL1       -0.3854
     18 H         143.1179  140.1148  171.9653 H       1  UNL1        0.2103
     19 C         143.0275  141.8286  164.1875 C.3     1  UNL1        0.1143
     20 C         144.1002  140.3456  162.3436 C.2     1  UNL1        0.2304
     21 O         145.2096  141.3430  162.1868 O.2     1  UNL1       -0.2745
     22 N         143.0092  140.5884  163.3440 N.am    1  UNL1       -0.2425
     23 C         141.8998  139.5910  163.5008 C.ar    1  UNL1        0.1373
     24 C         142.0198  138.4884  164.5106 C.ar    1  UNL1        0.0347
     25 C         140.9104  137.4910  164.6674 C.ar    1  UNL1        0.0044
     26 C         139.6812  137.5963  163.8143 C.ar    1  UNL1        0.0232
     27 C         139.5612  138.6990  162.8045 C.ar    1  UNL1        0.1540
     28 N         140.6705  139.6964  162.6477 N.ar    1  UNL1       -0.2263
     29 C         138.3318  138.8043  161.9514 C.3     1  UNL1        0.4349
     30 F         137.1025  138.9096  161.0983 F       1  UNL1       -0.1644
     31 F         137.7606  139.8164  162.8997 F       1  UNL1       -0.1644
     32 F         138.9032  137.7921  161.0032 F       1  UNL1       -0.1644
     33 C         143.5929  139.1691  160.0834 C.3     1  UNL1        0.0101
     34 C         144.0819  139.1055  161.5000 C.3     1  UNL1        0.0857
@<TRIPOS>BOND
     1    33    34    1
     2    34    20    1
     3    20    21    2
     4    20    22   am
     5    22    19    1
     6    19     1    1
     7     1     7    1
     8     7     8    1
     9     8     9    1
    10     9    10    1
    11    10    13    1
    12    13    14    1
    13    14    15    1
    14    14    16    1
    15    14    17    1
    16    10    11    1
    17    11    12    1
    18     1     2    1
    19     2     3    1
    20     3     4    1
    21     4     5    1
    22     5     6    1
    23    22    23    1
    24    23    24   ar
    25    24    25   ar
    26    25    26   ar
    27    26    27   ar
    28    27    29    1
    29    29    30    1
    30    29    31    1
    31    29    32    1
    32    27    28   ar
    33     6     1    1
    34    28    23   ar
    35    12     7    1
    36    17    18    1
