@<TRIPOS>MOLECULE
*****
 31 34 0 0 0
SMALL
GASTEIGER

@<TRIPOS>ATOM
      1 O         139.6515  138.8078  165.6174 O.2     1  UNL1       -0.2522
      2 C         139.9414  139.7706  164.5043 C.2     1  UNL1        0.3076
      3 N         140.6625  141.0817  164.6096 N.am    1  UNL1       -0.2681
      4 N         139.4247  139.3034  163.1759 N.am    1  UNL1       -0.2671
      5 C         139.5532  140.0353  161.8730 C.3     1  UNL1        0.0785
      6 C         138.8966  139.2066  160.8090 C.3     1  UNL1        0.0216
      7 C         138.3624  137.9624  161.4544 C.3     1  UNL1        0.0216
      8 C         138.6887  138.0222  162.9172 C.3     1  UNL1        0.0785
      9 C         139.1445  138.3475  164.3192 C.3     1  UNL1        0.0439
     10 C         139.8656  139.6586  164.4245 C.3     1  UNL1        0.1388
     11 C         140.0699  140.5025  163.2014 C.3     1  UNL1        0.0439
     12 H         140.7966  141.6356  163.8069 H       1  UNL1        0.1564
     13 C         141.1792  141.5488  165.9380 C.ar    1  UNL1        0.0516
     14 C         140.3020  142.3674  166.8383 C.ar    1  UNL1        0.0147
     15 C         140.8187  142.8346  168.1667 C.ar    1  UNL1        0.0051
     16 C         142.2126  142.4832  168.5950 C.ar    1  UNL1        0.0715
     17 C         143.0899  141.6646  167.6948 C.ar    1  UNL1        0.0051
     18 C         142.5733  141.1974  166.3663 C.ar    1  UNL1        0.0147
     19 C         142.7293  142.9503  169.9234 C.3     1  UNL1        0.4186
     20 F         143.2460  143.4175  171.2519 F       1  UNL1       -0.1659
     21 F         143.9963  142.1785  169.7021 F       1  UNL1       -0.1659
     22 F         141.4623  143.7223  170.1447 F       1  UNL1       -0.1659
     23 S         140.3824  140.1258  165.7530 S.O2    1  UNL1        0.0234
     24 O         141.7312  139.4792  165.8655 O.2     1  UNL1       -0.1672
     25 O         139.1936  140.9599  166.1286 O.2     1  UNL1       -0.1672
     26 C         140.8992  140.5930  167.0814 C.ar    1  UNL1        0.1861
     27 C         142.2639  140.1765  167.5438 C.ar    1  UNL1        0.0379
     28 C         142.7807  140.6436  168.8722 C.ar    1  UNL1        0.0045
     29 C         141.9327  141.5272  169.7382 C.ar    1  UNL1        0.0208
     30 C         140.5678  141.9437  169.2758 C.ar    1  UNL1        0.1004
     31 N         140.0510  141.4766  167.9474 N.ar    1  UNL1       -0.2257
@<TRIPOS>BOND
     1     1     2    2
     2     2     3   am
     3     3    13    1
     4    13    14   ar
     5    14    15   ar
     6    15    16   ar
     7    16    19    1
     8    19    20    1
     9    19    21    1
    10    19    22    1
    11    16    17   ar
    12    17    18   ar
    13     2     4   am
    14     4     5    1
    15     5     6    1
    16     6     7    1
    17     8     7    1
    18     8     9    1
    19     9    10    1
    20    10    23    1
    21    23    24    2
    22    23    25    2
    23    23    26    1
    24    26    27   ar
    25    27    28   ar
    26    28    29   ar
    27    29    30   ar
    28    30    31   ar
    29    10    11    1
    30    18    13   ar
    31     8     4    1
    32    31    26   ar
    33    11     5    1
    34     3    12    1
@<TRIPOS>MOLECULE
*****
 31 34 0 0 0
SMALL
GASTEIGER

@<TRIPOS>ATOM
      1 O         143.3926  139.3894  164.9827 O.2     1  UNL1       -0.2522
      2 C         142.2217  139.5679  164.0624 C.2     1  UNL1        0.3076
      3 N         140.9077  140.2141  164.3880 N.am    1  UNL1       -0.2681
      4 N         142.4664  139.0166  162.6890 N.am    1  UNL1       -0.2671
      5 C         141.4971  139.0388  161.5444 C.3     1  UNL1        0.0785
      6 C         142.1550  138.3823  160.3671 C.3     1  UNL1        0.0216
      7 C         143.5309  137.9544  160.7840 C.3     1  UNL1        0.0216
      8 C         143.7234  138.3465  162.2190 C.3     1  UNL1        0.0785
      9 C         143.6355  138.8489  163.6399 C.3     1  UNL1        0.0439
     10 C         142.3216  139.4951  163.9656 C.3     1  UNL1        0.1388
     11 C         141.2524  139.5900  162.9178 C.3     1  UNL1        0.0439
     12 H         140.2060  140.2764  163.7004 H       1  UNL1        0.1564
     13 C         140.6631  140.7653  165.7614 C.ar    1  UNL1        0.0516
     14 C         140.9952  142.1961  166.0655 C.ar    1  UNL1        0.0147
     15 C         140.7506  142.7474  167.4389 C.ar    1  UNL1        0.0051
     16 C         140.1737  141.8679  168.5083 C.ar    1  UNL1        0.0715
     17 C         139.8415  140.4371  168.2043 C.ar    1  UNL1        0.0051
     18 C         140.0862  139.8858  166.8309 C.ar    1  UNL1        0.0147
     19 C         139.9291  142.4192  169.8816 C.3     1  UNL1        0.4186
     20 F         139.6844  142.9705  171.2550 F       1  UNL1       -0.1659
     21 F         140.5019  143.7380  169.4543 F       1  UNL1       -0.1659
     22 F         139.3562  141.1003  170.3090 F       1  UNL1       -0.1659
     23 S         142.0769  140.0464  165.3390 S.O2    1  UNL1        0.0234
     24 O         142.6340  141.4377  165.2762 O.2     1  UNL1       -0.1672
     25 O         141.4166  138.8268  165.9106 O.2     1  UNL1       -0.1672
     26 C         141.8322  140.5977  166.7124 C.ar    1  UNL1        0.1861
     27 C         142.2377  142.0043  167.0391 C.ar    1  UNL1        0.0379
     28 C         141.9930  142.5556  168.4125 C.ar    1  UNL1        0.0045
     29 C         141.3428  141.7002  169.4592 C.ar    1  UNL1        0.0208
     30 C         140.9374  140.2934  169.1324 C.ar    1  UNL1        0.1004
     31 N         141.1820  139.7421  167.7590 N.ar    1  UNL1       -0.2257
@<TRIPOS>BOND
     1     1     2    2
     2     2     3   am
     3     3    13    1
     4    13    14   ar
     5    14    15   ar
     6    15    16   ar
     7    16    19    1
     8    19    20    1
     9    19    21    1
    10    19    22    1
    11    16    17   ar
    12    17    18   ar
    13     2     4   am
    14     4     5    1
    15     5     6    1
    16     6     7    1
    17     8     7    1
    18     8     9    1
    19     9    10    1
    20    10    23    1
    21    23    24    2
    22    23    25    2
    23    23    26    1
    24    26    27   ar
    25    27    28   ar
    26    28    29   ar
    27    29    30   ar
    28    30    31   ar
    29    10    11    1
    30    18    13   ar
    31     8     4    1
    32    31    26   ar
    33    11     5    1
    34     3    12    1
@<TRIPOS>MOLECULE
*****
 31 34 0 0 0
SMALL
GASTEIGER

@<TRIPOS>ATOM
      1 O         139.3430  139.5026  167.1358 O.2     1  UNL1       -0.2522
      2 C         139.9086  140.8816  166.9677 C.2     1  UNL1        0.3076
      3 N         140.2969  141.5474  165.6808 N.am    1  UNL1       -0.2681
      4 N         140.0744  141.6096  168.2686 N.am    1  UNL1       -0.2671
      5 C         140.6120  142.9996  168.4389 C.3     1  UNL1        0.0785
      6 C         140.6016  143.3245  169.9032 C.3     1  UNL1        0.0216
      7 C         140.0575  142.1354  170.6380 C.3     1  UNL1        0.0216
      8 C         139.7317  141.0755  169.6278 C.3     1  UNL1        0.0785
      9 C         139.5038  140.2119  168.4106 C.3     1  UNL1        0.0439
     10 C         139.8921  140.8778  167.1238 C.3     1  UNL1        0.1388
     11 C         140.4462  142.2716  167.1379 C.3     1  UNL1        0.0439
     12 H         140.6605  142.4623  165.6901 H       1  UNL1        0.1564
     13 C         140.1310  140.8194  164.3799 C.ar    1  UNL1        0.0516
     14 C         141.2431  139.9613  163.8536 C.ar    1  UNL1        0.0147
     15 C         141.0773  139.2332  162.5527 C.ar    1  UNL1        0.0051
     16 C         139.7994  139.3632  161.7780 C.ar    1  UNL1        0.0715
     17 C         138.6873  140.2213  162.3043 C.ar    1  UNL1        0.0051
     18 C         138.8531  140.9494  163.6052 C.ar    1  UNL1        0.0147
     19 C         139.6336  138.6351  160.4771 C.3     1  UNL1        0.4186
     20 F         139.4679  137.9070  159.1762 F       1  UNL1       -0.1659
     21 F         141.0212  138.0812  160.6103 F       1  UNL1       -0.1659
     22 F         138.2460  139.1891  160.3440 F       1  UNL1       -0.1659
     23 S         139.7263  140.1497  165.8228 S.O2    1  UNL1        0.0234
     24 O         138.3103  140.4405  165.4221 O.2     1  UNL1       -0.1672
     25 O         141.1134  139.5833  165.7521 O.2     1  UNL1       -0.1672
     26 C         139.5604  139.4217  164.5218 C.ar    1  UNL1        0.1861
     27 C         140.6506  138.5207  164.0223 C.ar    1  UNL1        0.0379
     28 C         140.4847  137.7927  162.7213 C.ar    1  UNL1        0.0045
     29 C         139.2285  137.9657  161.9200 C.ar    1  UNL1        0.0208
     30 C         138.1383  138.8667  162.4196 C.ar    1  UNL1        0.1004
     31 N         138.3042  139.5947  163.7205 N.ar    1  UNL1       -0.2257
@<TRIPOS>BOND
     1     1     2    2
     2     2     3   am
     3     3    13    1
     4    13    14   ar
     5    14    15   ar
     6    15    16   ar
     7    16    19    1
     8    19    20    1
     9    19    21    1
    10    19    22    1
    11    16    17   ar
    12    17    18   ar
    13     2     4   am
    14     4     5    1
    15     5     6    1
    16     6     7    1
    17     8     7    1
    18     8     9    1
    19     9    10    1
    20    10    23    1
    21    23    24    2
    22    23    25    2
    23    23    26    1
    24    26    27   ar
    25    27    28   ar
    26    28    29   ar
    27    29    30   ar
    28    30    31   ar
    29    10    11    1
    30    18    13   ar
    31     8     4    1
    32    31    26   ar
    33    11     5    1
    34     3    12    1
