@<TRIPOS>MOLECULE
*****
 35 40 0 0 0
SMALL
GASTEIGER

@<TRIPOS>ATOM
      1 C         138.5564  139.5730  163.9156 C.ar    1  UNL1        0.1188
      2 C         138.4655  138.3284  163.0832 C.ar    1  UNL1        0.0223
      3 C         138.4134  138.4287  161.5875 C.ar    1  UNL1        0.0032
      4 C         138.4522  139.7735  160.9241 C.ar    1  UNL1        0.0189
      5 C         138.4001  139.8737  159.4284 C.ar    1  UNL1        0.0016
      6 C         138.4390  141.2185  158.7651 C.ar    1  UNL1        0.0014
      7 C         138.5299  142.4631  159.5974 C.ar    1  UNL1        0.0158
      8 C         138.5820  142.3628  161.0932 C.ar    1  UNL1        0.0626
      9 C         138.5432  141.0181  161.7565 C.ar    1  UNL1        0.0944
     10 N         138.5953  140.9177  163.2523 N.ar    1  UNL1       -0.2410
     11 C         143.4579  142.4015  169.3638 C.3     1  UNL1        0.1124
     12 N         142.2537  141.5582  169.6620 N.pl3   1  UNL1       -0.2987
     13 C         141.9194  141.2031  171.0804 C.3     1  UNL1        0.1387
     14 C         140.7153  140.3599  171.3786 C.3     1  UNL1        0.2269
     15 O         139.8454  139.8718  170.2584 O.3     1  UNL1       -0.4692
     16 C         140.1797  140.2269  168.8399 C.ar    1  UNL1        0.1907
     17 C         141.3839  141.0702  168.5417 C.ar    1  UNL1        0.1067
     18 C         141.7181  141.4253  167.1232 C.ar    1  UNL1        0.1382
     19 N         140.8483  140.9372  166.0029 N.ar    1  UNL1       -0.1592
     20 N         139.6441  140.0940  166.3011 N.ar    1  UNL1       -0.1869
     21 C         138.6085  139.4727  165.4114 C.ar    1  UNL1        0.2041
     22 N         137.6343  138.7336  166.2800 N.ar    1  UNL1       -0.1253
     23 N         138.0677  138.8981  167.7066 N.ar    1  UNL1       -0.1237
     24 C         139.3098  139.7388  167.7196 C.ar    1  UNL1        0.2218
     25 N         138.6729  143.6074  161.9256 N.pl3   1  UNL1       -0.3294
     26 H         138.0733  143.7285  162.6970 H       1  UNL1        0.1469
     27 C         139.6774  144.6673  161.5827 C.3     1  UNL1        0.1201
     28 C         140.8756  144.8771  162.4604 C.3     1  UNL1        0.1543
     29 F         139.8105  145.4854  163.3238 F       1  UNL1       -0.2382
     30 C         141.5245  144.1959  161.2921 C.3     1  UNL1        0.0514
     31 C         143.0018  143.9359  161.3015 C.3     1  UNL1        0.0714
     32 N         143.8300  144.3571  162.4791 N.3     1  UNL1       -0.2973
     33 C         143.1811  145.0382  163.6473 C.3     1  UNL1        0.0714
     34 C         141.7038  145.2983  163.6380 C.3     1  UNL1        0.0514
     35 H         144.5426  144.9952  162.1248 H       1  UNL1        0.1233
@<TRIPOS>BOND
     1    11    12    1
     2    12    13    1
     3    13    14    1
     4    14    15    1
     5    15    16    1
     6    16    17   ar
     7    17    18   ar
     8    18    19   ar
     9    19    20   ar
    10    20    21   ar
    11    21     1    1
    12     1     2   ar
    13     2     3   ar
    14     3     4   ar
    15     4     5   ar
    16     5     6   ar
    17     6     7   ar
    18     7     8   ar
    19     8    25    1
    20    25    27    1
    21    27    28    1
    22    28    29    1
    23    28    30    1
    24    30    31    1
    25    31    32    1
    26    32    33    1
    27    33    34    1
    28     8     9   ar
    29     9    10   ar
    30    21    22   ar
    31    22    23   ar
    32    23    24   ar
    33    17    12    1
    34    24    20   ar
    35    24    16   ar
    36    10     1   ar
    37     9     4   ar
    38    34    28    1
    39    25    26    1
    40    32    35    1
@<TRIPOS>MOLECULE
*****
 35 40 0 0 0
SMALL
GASTEIGER

@<TRIPOS>ATOM
      1 C         138.4701  139.9359  160.6511 C.ar    1  UNL1        0.1188
      2 C         138.9327  138.5090  160.6561 C.ar    1  UNL1        0.0223
      3 C         139.0971  137.7786  161.9559 C.ar    1  UNL1        0.0032
      4 C         138.7990  138.4749  163.2505 C.ar    1  UNL1        0.0189
      5 C         138.9634  137.7444  164.5503 C.ar    1  UNL1        0.0016
      6 C         138.6653  138.4408  165.8449 C.ar    1  UNL1        0.0014
      7 C         138.2028  139.8677  165.8399 C.ar    1  UNL1        0.0158
      8 C         138.0383  140.5982  164.5402 C.ar    1  UNL1        0.0626
      9 C         138.3364  139.9018  163.2455 C.ar    1  UNL1        0.0944
     10 N         138.1720  140.6323  161.9457 N.ar    1  UNL1       -0.2410
     11 C         142.1041  146.0986  157.4070 C.3     1  UNL1        0.1124
     12 N         140.9802  145.3416  156.7637 N.pl3   1  UNL1       -0.2987
     13 C         140.4795  145.7492  155.4098 C.3     1  UNL1        0.1387
     14 C         139.3556  144.9921  154.7665 C.3     1  UNL1        0.2269
     15 O         138.7324  143.8275  155.4772 O.3     1  UNL1       -0.4692
     16 C         139.2330  143.4199  156.8312 C.ar    1  UNL1        0.1907
     17 C         140.3569  144.1769  157.4744 C.ar    1  UNL1        0.1067
     18 C         140.8575  143.7693  158.8284 C.ar    1  UNL1        0.1382
     19 N         140.2343  142.6046  159.5391 N.ar    1  UNL1       -0.1592
     20 N         139.1104  141.8476  158.8959 N.ar    1  UNL1       -0.1869
     21 C         138.3057  140.6665  159.3513 C.ar    1  UNL1        0.2041
     22 N         137.3078  140.3441  158.2788 N.ar    1  UNL1       -0.1253
     23 N         137.4957  141.3261  157.1605 N.ar    1  UNL1       -0.1237
     24 C         138.6097  142.2552  157.5419 C.ar    1  UNL1        0.2218
     25 N         137.5758  142.0251  164.5350 N.pl3   1  UNL1       -0.3294
     26 H         136.6318  142.2360  164.3517 H       1  UNL1        0.1469
     27 C         138.5517  143.1308  164.8092 C.3     1  UNL1        0.1201
     28 C         138.8706  144.1322  163.7389 C.3     1  UNL1        0.1543
     29 F         137.4486  143.8145  163.3829 F       1  UNL1       -0.2382
     30 C         140.1819  144.1020  164.4666 C.3     1  UNL1        0.0514
     31 C         141.3183  144.9630  164.0003 C.3     1  UNL1        0.0714
     32 N         141.1434  145.8540  162.8064 N.3     1  UNL1       -0.2973
     33 C         139.8321  145.8841  162.0787 C.3     1  UNL1        0.0714
     34 C         138.6957  145.0232  162.5450 C.3     1  UNL1        0.0514
     35 H         141.8513  145.5773  162.1262 H       1  UNL1        0.1233
@<TRIPOS>BOND
     1    11    12    1
     2    12    13    1
     3    13    14    1
     4    14    15    1
     5    15    16    1
     6    16    17   ar
     7    17    18   ar
     8    18    19   ar
     9    19    20   ar
    10    20    21   ar
    11    21     1    1
    12     1     2   ar
    13     2     3   ar
    14     3     4   ar
    15     4     5   ar
    16     5     6   ar
    17     6     7   ar
    18     7     8   ar
    19     8    25    1
    20    25    27    1
    21    27    28    1
    22    28    29    1
    23    28    30    1
    24    30    31    1
    25    31    32    1
    26    32    33    1
    27    33    34    1
    28     8     9   ar
    29     9    10   ar
    30    21    22   ar
    31    22    23   ar
    32    23    24   ar
    33    17    12    1
    34    24    20   ar
    35    24    16   ar
    36    10     1   ar
    37     9     4   ar
    38    34    28    1
    39    25    26    1
    40    32    35    1
@<TRIPOS>MOLECULE
*****
 35 40 0 0 0
SMALL
GASTEIGER

@<TRIPOS>ATOM
      1 C         138.8540  139.5555  163.8148 C.ar    1  UNL1        0.1188
      2 C         137.7707  140.2803  163.0724 C.ar    1  UNL1        0.0223
      3 C         137.8100  140.3572  161.5749 C.ar    1  UNL1        0.0032
      4 C         138.9326  139.7093  160.8199 C.ar    1  UNL1        0.0189
      5 C         138.9718  139.7862  159.3224 C.ar    1  UNL1        0.0016
      6 C         140.0943  139.1383  158.5673 C.ar    1  UNL1        0.0014
      7 C         141.1776  138.4135  159.3097 C.ar    1  UNL1        0.0158
      8 C         141.1384  138.3366  160.8072 C.ar    1  UNL1        0.0626
      9 C         140.0159  138.9845  161.5623 C.ar    1  UNL1        0.0944
     10 N         139.9765  138.9076  163.0598 N.ar    1  UNL1       -0.2410
     11 C         143.5284  142.2985  169.5012 C.3     1  UNL1        0.1124
     12 N         142.2788  141.5039  169.7400 N.pl3   1  UNL1       -0.2987
     13 C         141.8493  141.1848  171.1413 C.3     1  UNL1        0.1387
     14 C         140.5996  140.3902  171.3801 C.3     1  UNL1        0.2269
     15 O         139.7795  139.9147  170.2177 O.3     1  UNL1       -0.4692
     16 C         140.2091  140.2338  168.8164 C.ar    1  UNL1        0.1907
     17 C         141.4587  141.0284  168.5776 C.ar    1  UNL1        0.1067
     18 C         141.8882  141.3475  167.1762 C.ar    1  UNL1        0.1382
     19 N         141.0681  140.8720  166.0138 N.ar    1  UNL1       -0.1592
     20 N         139.8185  140.0774  166.2526 N.ar    1  UNL1       -0.1869
     21 C         138.8147  139.4786  165.3124 C.ar    1  UNL1        0.2041
     22 N         137.7649  138.7895  166.1327 N.ar    1  UNL1       -0.1253
     23 N         138.1198  138.9623  167.5798 N.ar    1  UNL1       -0.1237
     24 C         139.3890  139.7583  167.6539 C.ar    1  UNL1        0.2218
     25 N         142.2217  137.6118  161.5497 N.pl3   1  UNL1       -0.3294
     26 H         141.9950  136.8517  162.1329 H       1  UNL1        0.1469
     27 C         143.6502  138.0453  161.4036 C.3     1  UNL1        0.1201
     28 C         144.0749  139.4021  161.8816 C.3     1  UNL1        0.1543
     29 F         144.1802  139.6035  160.3990 F       1  UNL1       -0.2382
     30 C         143.8221  138.7295  163.1983 C.3     1  UNL1        0.0514
     31 C         144.0306  139.4837  164.4780 C.3     1  UNL1        0.0714
     32 N         144.4919  140.9105  164.4411 N.3     1  UNL1       -0.2973
     33 C         144.7447  141.5832  163.1244 C.3     1  UNL1        0.0714
     34 C         144.5362  140.8290  161.8447 C.3     1  UNL1        0.0514
     35 H         145.3661  140.9510  164.9650 H       1  UNL1        0.1233
@<TRIPOS>BOND
     1    11    12    1
     2    12    13    1
     3    13    14    1
     4    14    15    1
     5    15    16    1
     6    16    17   ar
     7    17    18   ar
     8    18    19   ar
     9    19    20   ar
    10    20    21   ar
    11    21     1    1
    12     1     2   ar
    13     2     3   ar
    14     3     4   ar
    15     4     5   ar
    16     5     6   ar
    17     6     7   ar
    18     7     8   ar
    19     8    25    1
    20    25    27    1
    21    27    28    1
    22    28    29    1
    23    28    30    1
    24    30    31    1
    25    31    32    1
    26    32    33    1
    27    33    34    1
    28     8     9   ar
    29     9    10   ar
    30    21    22   ar
    31    22    23   ar
    32    23    24   ar
    33    17    12    1
    34    24    20   ar
    35    24    16   ar
    36    10     1   ar
    37     9     4   ar
    38    34    28    1
    39    25    26    1
    40    32    35    1
@<TRIPOS>MOLECULE
*****
 35 40 0 0 0
SMALL
GASTEIGER

@<TRIPOS>ATOM
      1 C         142.5271  142.4915  165.1981 C.ar    1  UNL1        0.1188
      2 C         143.4907  142.7082  166.3270 C.ar    1  UNL1        0.0223
      3 C         143.1756  142.1776  167.6942 C.ar    1  UNL1        0.0032
      4 C         141.8971  141.4302  167.9324 C.ar    1  UNL1        0.0189
      5 C         141.5821  140.8996  169.2995 C.ar    1  UNL1        0.0016
      6 C         140.3036  140.1522  169.5377 C.ar    1  UNL1        0.0014
      7 C         139.3400  139.9354  168.4088 C.ar    1  UNL1        0.0158
      8 C         139.6550  140.4660  167.0416 C.ar    1  UNL1        0.0626
      9 C         140.9335  141.2134  166.8034 C.ar    1  UNL1        0.0944
     10 N         141.2486  141.7441  165.4362 N.ar    1  UNL1       -0.2410
     11 C         138.5553  142.6996  158.4238 C.3     1  UNL1        0.1124
     12 N         139.9377  143.2500  158.6138 N.pl3   1  UNL1       -0.2987
     13 C         140.6534  143.8937  157.4633 C.3     1  UNL1        0.1387
     14 C         142.0357  144.4440  157.6533 C.3     1  UNL1        0.2269
     15 O         142.7025  144.3507  158.9937 O.3     1  UNL1       -0.4692
     16 C         141.9869  143.7071  160.1441 C.ar    1  UNL1        0.1907
     17 C         140.6045  143.1567  159.9542 C.ar    1  UNL1        0.1067
     18 C         139.8889  142.5130  161.1047 C.ar    1  UNL1        0.1382
     19 N         140.5557  142.4197  162.4451 N.ar    1  UNL1       -0.1592
     20 N         141.9381  142.9701  162.6350 N.ar    1  UNL1       -0.1869
     21 C         142.8421  143.0221  163.8308 C.ar    1  UNL1        0.2041
     22 N         144.1165  143.6980  163.4194 N.ar    1  UNL1       -0.1253
     23 N         144.0000  144.0636  161.9693 N.ar    1  UNL1       -0.1237
     24 C         142.6537  143.6137  161.4846 C.ar    1  UNL1        0.2218
     25 N         138.6915  140.2493  165.9125 N.pl3   1  UNL1       -0.3294
     26 H         138.1340  140.9944  165.5912 H       1  UNL1        0.1469
     27 C         138.5775  138.8973  165.2730 C.3     1  UNL1        0.1201
     28 C         139.1279  138.6700  163.8962 C.3     1  UNL1        0.1543
     29 F         138.0222  139.6327  163.5791 F       1  UNL1       -0.2382
     30 C         140.0425  137.7862  164.6916 C.3     1  UNL1        0.0514
     31 C         141.1234  137.0095  164.0000 C.3     1  UNL1        0.0714
     32 N         141.2898  137.1166  162.5131 N.3     1  UNL1       -0.2973
     33 C         140.3753  138.0004  161.7177 C.3     1  UNL1        0.0714
     34 C         139.2943  138.7771  162.4093 C.3     1  UNL1        0.0514
     35 H         141.1889  136.1739  162.1369 H       1  UNL1        0.1233
@<TRIPOS>BOND
     1    11    12    1
     2    12    13    1
     3    13    14    1
     4    14    15    1
     5    15    16    1
     6    16    17   ar
     7    17    18   ar
     8    18    19   ar
     9    19    20   ar
    10    20    21   ar
    11    21     1    1
    12     1     2   ar
    13     2     3   ar
    14     3     4   ar
    15     4     5   ar
    16     5     6   ar
    17     6     7   ar
    18     7     8   ar
    19     8    25    1
    20    25    27    1
    21    27    28    1
    22    28    29    1
    23    28    30    1
    24    30    31    1
    25    31    32    1
    26    32    33    1
    27    33    34    1
    28     8     9   ar
    29     9    10   ar
    30    21    22   ar
    31    22    23   ar
    32    23    24   ar
    33    17    12    1
    34    24    20   ar
    35    24    16   ar
    36    10     1   ar
    37     9     4   ar
    38    34    28    1
    39    25    26    1
    40    32    35    1
@<TRIPOS>MOLECULE
*****
 35 40 0 0 0
SMALL
GASTEIGER

@<TRIPOS>ATOM
      1 C         139.2897  139.4429  164.8592 C.ar    1  UNL1        0.1188
      2 C         138.2487  139.0917  165.8804 C.ar    1  UNL1        0.0223
      3 C         138.5117  139.3413  167.3359 C.ar    1  UNL1        0.0032
      4 C         139.8158  139.9420  167.7702 C.ar    1  UNL1        0.0189
      5 C         140.0787  140.1915  169.2257 C.ar    1  UNL1        0.0016
      6 C         141.3828  140.7922  169.6600 C.ar    1  UNL1        0.0014
      7 C         142.4238  141.1434  168.6388 C.ar    1  UNL1        0.0158
      8 C         142.1609  140.8939  167.1833 C.ar    1  UNL1        0.0626
      9 C         140.8568  140.2931  166.7490 C.ar    1  UNL1        0.0944
     10 N         140.5937  140.0436  165.2934 N.ar    1  UNL1       -0.2410
     11 C         139.7688  143.9239  158.4250 C.3     1  UNL1        0.1124
     12 N         139.3460  142.4848  158.4268 N.pl3   1  UNL1       -0.2987
     13 C         138.9795  141.8092  157.1386 C.3     1  UNL1        0.1387
     14 C         138.5567  140.3700  157.1404 C.3     1  UNL1        0.2269
     15 O         138.5003  139.6065  158.4302 O.3     1  UNL1       -0.4692
     16 C         138.8667  140.2820  159.7183 C.ar    1  UNL1        0.1907
     17 C         139.2895  141.7212  159.7166 C.ar    1  UNL1        0.1067
     18 C         139.6560  142.3968  161.0048 C.ar    1  UNL1        0.1382
     19 N         139.5995  141.6332  162.2946 N.ar    1  UNL1       -0.1592
     20 N         139.1767  140.1941  162.2963 N.ar    1  UNL1       -0.1869
     21 C         139.0267  139.1933  163.4036 C.ar    1  UNL1        0.2041
     22 N         138.5676  137.8992  162.7998 N.ar    1  UNL1       -0.1253
     23 N         138.4338  138.1002  161.3193 N.ar    1  UNL1       -0.1237
     24 C         138.8103  139.5185  161.0082 C.ar    1  UNL1        0.2218
     25 N         143.2019  141.2450  166.1620 N.pl3   1  UNL1       -0.3294
     26 H         143.7488  140.5361  165.7527 H       1  UNL1        0.1469
     27 C         143.4095  142.6763  165.7643 C.3     1  UNL1        0.1201
     28 C         143.7197  143.0210  164.3377 C.3     1  UNL1        0.1543
     29 F         142.5771  143.9594  164.5899 F       1  UNL1       -0.2382
     30 C         144.7546  141.9628  164.5811 C.3     1  UNL1        0.0514
     31 C         145.7029  141.5752  163.4854 C.3     1  UNL1        0.0714
     32 N         145.6162  142.2457  162.1464 N.3     1  UNL1       -0.2973
     33 C         144.5814  143.3039  161.9031 C.3     1  UNL1        0.0714
     34 C         143.6331  143.6915  162.9988 C.3     1  UNL1        0.0514
     35 H         145.4527  141.5103  161.4588 H       1  UNL1        0.1233
@<TRIPOS>BOND
     1    11    12    1
     2    12    13    1
     3    13    14    1
     4    14    15    1
     5    15    16    1
     6    16    17   ar
     7    17    18   ar
     8    18    19   ar
     9    19    20   ar
    10    20    21   ar
    11    21     1    1
    12     1     2   ar
    13     2     3   ar
    14     3     4   ar
    15     4     5   ar
    16     5     6   ar
    17     6     7   ar
    18     7     8   ar
    19     8    25    1
    20    25    27    1
    21    27    28    1
    22    28    29    1
    23    28    30    1
    24    30    31    1
    25    31    32    1
    26    32    33    1
    27    33    34    1
    28     8     9   ar
    29     9    10   ar
    30    21    22   ar
    31    22    23   ar
    32    23    24   ar
    33    17    12    1
    34    24    20   ar
    35    24    16   ar
    36    10     1   ar
    37     9     4   ar
    38    34    28    1
    39    25    26    1
    40    32    35    1
@<TRIPOS>MOLECULE
*****
 35 40 0 0 0
SMALL
GASTEIGER

@<TRIPOS>ATOM
      1 C         141.5987  144.4011  163.0470 C.ar    1  UNL1        0.1188
      2 C         143.0433  144.6304  163.3793 C.ar    1  UNL1        0.0223
      3 C         143.6574  143.9480  164.5654 C.ar    1  UNL1        0.0032
      4 C         142.8270  143.0363  165.4193 C.ar    1  UNL1        0.0189
      5 C         143.4412  142.3539  166.6055 C.ar    1  UNL1        0.0016
      6 C         142.6108  141.4422  167.4594 C.ar    1  UNL1        0.0014
      7 C         141.1661  141.2128  167.1271 C.ar    1  UNL1        0.0158
      8 C         140.5519  141.8953  165.9410 C.ar    1  UNL1        0.0626
      9 C         141.3824  142.8070  165.0871 C.ar    1  UNL1        0.0944
     10 N         140.7682  143.4894  163.9008 N.ar    1  UNL1       -0.2410
     11 C         142.9487  144.0769  155.3152 C.3     1  UNL1        0.1124
     12 N         141.9015  144.9373  155.9580 N.pl3   1  UNL1       -0.2987
     13 C         141.0269  145.8132  155.1109 C.3     1  UNL1        0.1387
     14 C         139.9797  146.6736  155.7537 C.3     1  UNL1        0.2269
     15 O         139.8072  146.6580  157.2436 O.3     1  UNL1       -0.4692
     16 C         140.6818  145.7820  158.0907 C.ar    1  UNL1        0.1907
     17 C         141.7290  144.9216  157.4479 C.ar    1  UNL1        0.1067
     18 C         142.6036  144.0456  158.2951 C.ar    1  UNL1        0.1382
     19 N         142.4310  144.0300  159.7851 N.ar    1  UNL1       -0.1592
     20 N         141.3839  144.8904  160.4279 N.ar    1  UNL1       -0.1869
     21 C         140.9844  145.0836  161.8607 C.ar    1  UNL1        0.2041
     22 N         139.8629  146.0789  161.8991 N.ar    1  UNL1       -0.1253
     23 N         139.5693  146.5009  160.4900 N.ar    1  UNL1       -0.1237
     24 C         140.5093  145.7664  159.5808 C.ar    1  UNL1        0.2218
     25 N         139.1072  141.6660  165.6086 N.pl3   1  UNL1       -0.3294
     26 H         138.4701  142.4159  165.6390 H       1  UNL1        0.1469
     27 C         138.6334  140.2941  165.2299 C.3     1  UNL1        0.1201
     28 C         138.2346  140.0028  163.8136 C.3     1  UNL1        0.1543
     29 F         137.7370  141.4122  163.9397 F       1  UNL1       -0.2382
     30 C         138.8707  138.6946  164.1794 C.3     1  UNL1        0.0514
     31 C         138.9352  137.5845  163.1726 C.3     1  UNL1        0.0714
     32 N         138.3635  137.7827  161.8001 N.3     1  UNL1       -0.2973
     33 C         137.7274  139.0909  161.4342 C.3     1  UNL1        0.0714
     34 C         137.6629  140.2010  162.4410 C.3     1  UNL1        0.0514
     35 H         137.6523  137.0631  161.6706 H       1  UNL1        0.1233
@<TRIPOS>BOND
     1    11    12    1
     2    12    13    1
     3    13    14    1
     4    14    15    1
     5    15    16    1
     6    16    17   ar
     7    17    18   ar
     8    18    19   ar
     9    19    20   ar
    10    20    21   ar
    11    21     1    1
    12     1     2   ar
    13     2     3   ar
    14     3     4   ar
    15     4     5   ar
    16     5     6   ar
    17     6     7   ar
    18     7     8   ar
    19     8    25    1
    20    25    27    1
    21    27    28    1
    22    28    29    1
    23    28    30    1
    24    30    31    1
    25    31    32    1
    26    32    33    1
    27    33    34    1
    28     8     9   ar
    29     9    10   ar
    30    21    22   ar
    31    22    23   ar
    32    23    24   ar
    33    17    12    1
    34    24    20   ar
    35    24    16   ar
    36    10     1   ar
    37     9     4   ar
    38    34    28    1
    39    25    26    1
    40    32    35    1
@<TRIPOS>MOLECULE
*****
 35 40 0 0 0
SMALL
GASTEIGER

@<TRIPOS>ATOM
      1 C         139.1559  139.9844  164.7736 C.ar    1  UNL1        0.1188
      2 C         138.1503  139.5494  165.7980 C.ar    1  UNL1        0.0223
      3 C         138.5238  139.5203  167.2504 C.ar    1  UNL1        0.0032
      4 C         139.9029  139.9263  167.6785 C.ar    1  UNL1        0.0189
      5 C         140.2763  139.8972  169.1309 C.ar    1  UNL1        0.0016
      6 C         141.6555  140.3031  169.5590 C.ar    1  UNL1        0.0014
      7 C         142.6611  140.7382  168.5346 C.ar    1  UNL1        0.0158
      8 C         142.2877  140.7672  167.0821 C.ar    1  UNL1        0.0626
      9 C         140.9086  140.3613  166.6541 C.ar    1  UNL1        0.0944
     10 N         140.5350  140.3903  165.2015 N.ar    1  UNL1       -0.2410
     11 C         142.7200  137.5317  158.2169 C.3     1  UNL1        0.1124
     12 N         141.3762  138.1970  158.2537 N.pl3   1  UNL1       -0.2987
     13 C         140.6210  138.4330  156.9794 C.3     1  UNL1        0.1387
     14 C         139.2771  139.0983  157.0162 C.3     1  UNL1        0.2269
     15 O         138.6885  139.5277  158.3273 O.3     1  UNL1       -0.4692
     16 C         139.4437  139.2918  159.6016 C.ar    1  UNL1        0.1907
     17 C         140.7875  138.6264  159.5648 C.ar    1  UNL1        0.1067
     18 C         141.5427  138.3905  160.8392 C.ar    1  UNL1        0.1382
     19 N         140.9541  138.8199  162.1503 N.ar    1  UNL1       -0.1592
     20 N         139.6102  139.4853  162.1871 N.ar    1  UNL1       -0.1869
     21 C         138.7824  140.0135  163.3210 C.ar    1  UNL1        0.2041
     22 N         137.5157  140.5759  162.7475 N.ar    1  UNL1       -0.1253
     23 N         137.5605  140.3952  161.2590 N.ar    1  UNL1       -0.1237
     24 C         138.8550  139.7212  160.9128 C.ar    1  UNL1        0.2218
     25 N         143.2933  141.2023  166.0576 N.pl3   1  UNL1       -0.3294
     26 H         143.8770  140.5365  165.6271 H       1  UNL1        0.1469
     27 C         143.4095  142.6516  165.6891 C.3     1  UNL1        0.1201
     28 C         143.7121  143.0435  164.2731 C.3     1  UNL1        0.1543
     29 F         142.5731  143.9752  164.5635 F       1  UNL1       -0.2382
     30 C         144.7461  141.9757  164.4746 C.3     1  UNL1        0.0514
     31 C         145.6872  141.6233  163.3608 C.3     1  UNL1        0.0714
     32 N         145.5942  142.3388  162.0458 N.3     1  UNL1       -0.2973
     33 C         144.5602  143.4067  161.8444 C.3     1  UNL1        0.0714
     34 C         143.6192  143.7590  162.9581 C.3     1  UNL1        0.0514
     35 H         145.4250  141.6273  161.3348 H       1  UNL1        0.1233
@<TRIPOS>BOND
     1    11    12    1
     2    12    13    1
     3    13    14    1
     4    14    15    1
     5    15    16    1
     6    16    17   ar
     7    17    18   ar
     8    18    19   ar
     9    19    20   ar
    10    20    21   ar
    11    21     1    1
    12     1     2   ar
    13     2     3   ar
    14     3     4   ar
    15     4     5   ar
    16     5     6   ar
    17     6     7   ar
    18     7     8   ar
    19     8    25    1
    20    25    27    1
    21    27    28    1
    22    28    29    1
    23    28    30    1
    24    30    31    1
    25    31    32    1
    26    32    33    1
    27    33    34    1
    28     8     9   ar
    29     9    10   ar
    30    21    22   ar
    31    22    23   ar
    32    23    24   ar
    33    17    12    1
    34    24    20   ar
    35    24    16   ar
    36    10     1   ar
    37     9     4   ar
    38    34    28    1
    39    25    26    1
    40    32    35    1
@<TRIPOS>MOLECULE
*****
 35 40 0 0 0
SMALL
GASTEIGER

@<TRIPOS>ATOM
      1 C         138.7457  140.6946  160.5037 C.ar    1  UNL1        0.1188
      2 C         139.1682  139.2841  160.2176 C.ar    1  UNL1        0.0223
      3 C         139.2492  138.2846  161.3331 C.ar    1  UNL1        0.0032
      4 C         138.9076  138.6956  162.7347 C.ar    1  UNL1        0.0189
      5 C         138.9886  137.6961  163.8502 C.ar    1  UNL1        0.0016
      6 C         138.6470  138.1071  165.2517 C.ar    1  UNL1        0.0014
      7 C         138.2245  139.5176  165.5378 C.ar    1  UNL1        0.0158
      8 C         138.1435  140.5172  164.4223 C.ar    1  UNL1        0.0626
      9 C         138.4851  140.1062  163.0208 C.ar    1  UNL1        0.0944
     10 N         138.4041  141.1057  161.9051 N.ar    1  UNL1       -0.2410
     11 C         134.9807  140.8213  153.6104 C.3     1  UNL1        0.1124
     12 N         135.8590  141.9264  154.1175 N.pl3   1  UNL1       -0.2987
     13 C         136.0649  143.1605  153.2901 C.3     1  UNL1        0.1387
     14 C         136.9432  144.2656  153.7972 C.3     1  UNL1        0.2269
     15 O         137.6158  144.1367  155.1317 O.3     1  UNL1       -0.4692
     16 C         137.4100  142.9026  155.9591 C.ar    1  UNL1        0.1907
     17 C         136.5316  141.7975  155.4520 C.ar    1  UNL1        0.1067
     18 C         136.3258  140.5634  156.2795 C.ar    1  UNL1        0.1382
     19 N         136.9984  140.4344  157.6140 N.ar    1  UNL1       -0.1592
     20 N         137.8767  141.5396  158.1212 N.ar    1  UNL1       -0.1869
     21 C         138.6647  141.6942  159.3881 C.ar    1  UNL1        0.2041
     22 N         139.3575  143.0239  159.3436 N.ar    1  UNL1       -0.1253
     23 N         138.9977  143.6910  158.0492 N.ar    1  UNL1       -0.1237
     24 C         138.0825  142.7736  157.2937 C.ar    1  UNL1        0.2218
     25 N         137.7210  141.9278  164.7083 N.pl3   1  UNL1       -0.3294
     26 H         136.7643  142.1533  164.7645 H       1  UNL1        0.1469
     27 C         138.7561  142.9947  164.9087 C.3     1  UNL1        0.1201
     28 C         138.9698  144.0399  163.8542 C.3     1  UNL1        0.1543
     29 F         137.5318  143.6999  163.5964 F       1  UNL1       -0.2382
     30 C         140.3337  144.0168  164.4782 C.3     1  UNL1        0.0514
     31 C         141.4117  144.9208  163.9582 C.3     1  UNL1        0.0714
     32 N         141.1260  145.8479  162.8142 N.3     1  UNL1       -0.2973
     33 C         139.7621  145.8710  162.1901 C.3     1  UNL1        0.0714
     34 C         138.6840  144.9670  162.7102 C.3     1  UNL1        0.0514
     35 H         141.7852  145.6122  162.0724 H       1  UNL1        0.1233
@<TRIPOS>BOND
     1    11    12    1
     2    12    13    1
     3    13    14    1
     4    14    15    1
     5    15    16    1
     6    16    17   ar
     7    17    18   ar
     8    18    19   ar
     9    19    20   ar
    10    20    21   ar
    11    21     1    1
    12     1     2   ar
    13     2     3   ar
    14     3     4   ar
    15     4     5   ar
    16     5     6   ar
    17     6     7   ar
    18     7     8   ar
    19     8    25    1
    20    25    27    1
    21    27    28    1
    22    28    29    1
    23    28    30    1
    24    30    31    1
    25    31    32    1
    26    32    33    1
    27    33    34    1
    28     8     9   ar
    29     9    10   ar
    30    21    22   ar
    31    22    23   ar
    32    23    24   ar
    33    17    12    1
    34    24    20   ar
    35    24    16   ar
    36    10     1   ar
    37     9     4   ar
    38    34    28    1
    39    25    26    1
    40    32    35    1
@<TRIPOS>MOLECULE
*****
 35 40 0 0 0
SMALL
GASTEIGER

@<TRIPOS>ATOM
      1 C         142.8291  142.2014  165.1066 C.ar    1  UNL1        0.1188
      2 C         143.5429  142.6149  166.3593 C.ar    1  UNL1        0.0223
      3 C         142.9900  142.2297  167.6994 C.ar    1  UNL1        0.0032
      4 C         141.7233  141.4310  167.7868 C.ar    1  UNL1        0.0189
      5 C         141.1705  141.0458  169.1269 C.ar    1  UNL1        0.0016
      6 C         139.9038  140.2472  169.2143 C.ar    1  UNL1        0.0014
      7 C         139.1900  139.8336  167.9615 C.ar    1  UNL1        0.0158
      8 C         139.7428  140.2188  166.6213 C.ar    1  UNL1        0.0626
      9 C         141.0095  141.0175  166.5340 C.ar    1  UNL1        0.0944
     10 N         141.5624  141.4027  165.1938 N.ar    1  UNL1       -0.2410
     11 C         142.9390  138.6868  158.0820 C.3     1  UNL1        0.1124
     12 N         143.5400  140.0312  158.3673 N.pl3   1  UNL1       -0.2987
     13 C         144.2193  140.7970  157.2709 C.3     1  UNL1        0.1387
     14 C         144.8203  142.1414  157.5561 C.3     1  UNL1        0.2269
     15 O         144.7419  142.7201  158.9378 O.3     1  UNL1       -0.4692
     16 C         144.0626  141.9543  160.0341 C.ar    1  UNL1        0.1907
     17 C         143.4616  140.6099  159.7489 C.ar    1  UNL1        0.1067
     18 C         142.7823  139.8442  160.8454 C.ar    1  UNL1        0.1382
     19 N         142.7039  140.4228  162.2270 N.ar    1  UNL1       -0.1592
     20 N         143.3049  141.7673  162.5122 N.ar    1  UNL1       -0.1869
     21 C         143.3819  142.5866  163.7663 C.ar    1  UNL1        0.2041
     22 N         144.1089  143.8587  163.4450 N.ar    1  UNL1       -0.1253
     23 N         144.4811  143.8256  161.9923 N.ar    1  UNL1       -0.1237
     24 C         143.9842  142.5330  161.4159 C.ar    1  UNL1        0.2218
     25 N         139.0290  139.8054  165.3685 N.pl3   1  UNL1       -0.3294
     26 H         139.2643  138.9588  164.9245 H       1  UNL1        0.1469
     27 C         137.9568  140.6818  164.7922 C.3     1  UNL1        0.1201
     28 C         138.0548  141.1507  163.3707 C.3     1  UNL1        0.1543
     29 F         138.2963  139.6828  163.1782 F       1  UNL1       -0.2382
     30 C         137.7792  142.4557  164.0570 C.3     1  UNL1        0.0514
     31 C         137.6855  143.7197  163.2549 C.3     1  UNL1        0.0714
     32 N         137.8673  143.6787  161.7665 N.3     1  UNL1       -0.2973
     33 C         138.1429  142.3737  161.0802 C.3     1  UNL1        0.0714
     34 C         138.2366  141.1096  161.8824 C.3     1  UNL1        0.0514
     35 H         138.6487  144.2969  161.5482 H       1  UNL1        0.1233
@<TRIPOS>BOND
     1    11    12    1
     2    12    13    1
     3    13    14    1
     4    14    15    1
     5    15    16    1
     6    16    17   ar
     7    17    18   ar
     8    18    19   ar
     9    19    20   ar
    10    20    21   ar
    11    21     1    1
    12     1     2   ar
    13     2     3   ar
    14     3     4   ar
    15     4     5   ar
    16     5     6   ar
    17     6     7   ar
    18     7     8   ar
    19     8    25    1
    20    25    27    1
    21    27    28    1
    22    28    29    1
    23    28    30    1
    24    30    31    1
    25    31    32    1
    26    32    33    1
    27    33    34    1
    28     8     9   ar
    29     9    10   ar
    30    21    22   ar
    31    22    23   ar
    32    23    24   ar
    33    17    12    1
    34    24    20   ar
    35    24    16   ar
    36    10     1   ar
    37     9     4   ar
    38    34    28    1
    39    25    26    1
    40    32    35    1
