@<TRIPOS>MOLECULE
*****
 34 37 0 0 0
SMALL
GASTEIGER

@<TRIPOS>ATOM
      1 N         142.2935  139.2752  159.3854 N.3     1  UNL1       -0.2673
      2 C         142.8293  140.6523  159.1279 C.3     1  UNL1        0.1035
      3 C         143.6633  141.3392  160.1684 C.3     1  UNL1        0.1470
      4 C         144.4972  142.0262  161.2090 C.3     1  UNL1        0.1035
      5 N         144.7954  141.3359  162.5069 N.3     1  UNL1       -0.2682
      6 C         144.2595  139.9586  162.7643 C.3     1  UNL1        0.1035
      7 C         143.4256  139.2718  161.7238 C.3     1  UNL1        0.1470
      8 C         142.5917  138.5849  160.6833 C.3     1  UNL1        0.1035
      9 O         143.9614  140.6489  161.4664 O.3     1  UNL1       -0.3530
     10 C         141.4595  138.5882  158.3448 C.3     1  UNL1        0.0916
     11 C         139.9865  138.4080  158.5632 C.3     1  UNL1        0.1131
     12 C         138.6110  140.6113  158.5061 C.3     1  UNL1        0.1149
     13 N         139.1990  139.4667  159.2768 N.3     1  UNL1       -0.1526
     14 S         138.9996  139.3807  160.7609 S.O2    1  UNL1        0.0634
     15 O         138.8080  137.8972  160.6492 O.2     1  UNL1       -0.1528
     16 O         139.1912  140.8642  160.8727 O.2     1  UNL1       -0.1528
     17 C         138.8002  139.2947  162.2451 C.ar    1  UNL1        0.1222
     18 C         138.3517  140.5027  163.0129 C.ar    1  UNL1        0.0206
     19 C         138.1523  140.4167  164.4971 C.ar    1  UNL1        0.0116
     20 C         138.4013  139.1226  165.2135 C.ar    1  UNL1        0.0685
     21 C         138.8498  137.9145  164.4458 C.ar    1  UNL1        0.0116
     22 C         139.0492  138.0005  162.9616 C.ar    1  UNL1        0.0206
     23 C         138.2019  139.0366  166.6977 C.1     1  UNL1        0.1004
     24 N         138.0025  138.9506  168.1819 N.1     1  UNL1       -0.1908
     25 C         145.6293  142.0227  163.5474 C.3     1  UNL1        0.0770
     26 C         144.9708  142.6656  164.7320 C.3     1  UNL1        0.0459
     27 C         143.6196  143.3002  164.5862 C.ar    1  UNL1        0.0068
     28 C         143.4831  144.6225  163.8913 C.ar    1  UNL1        0.0003
     29 C         142.1317  145.2572  163.7455 C.ar    1  UNL1        0.0295
     30 C         140.9170  144.5695  164.2945 C.ar    1  UNL1        0.1424
     31 F         139.5657  145.2041  164.1487 F       1  UNL1       -0.2041
     32 C         141.0536  143.2472  164.9894 C.ar    1  UNL1        0.0589
     33 C         142.4048  142.6126  165.1353 C.ar    1  UNL1        0.1384
     34 F         142.5413  141.2903  165.8301 F       1  UNL1       -0.2044
@<TRIPOS>BOND
     1    12    13    1
     2    13    11    1
     3    11    10    1
     4    10     1    1
     5     1     2    1
     6     2     3    1
     7     3     4    1
     8     4     5    1
     9     5    25    1
    10    25    26    1
    11    26    27    1
    12    27    28   ar
    13    28    29   ar
    14    29    30   ar
    15    30    31    1
    16    30    32   ar
    17    32    33   ar
    18    33    34    1
    19     5     6    1
    20     6     7    1
    21     7     8    1
    22     7     9    1
    23    13    14    1
    24    14    15    2
    25    14    16    2
    26    14    17    1
    27    17    18   ar
    28    18    19   ar
    29    19    20   ar
    30    20    23    1
    31    23    24    3
    32    20    21   ar
    33    21    22   ar
    34     8     1    1
    35    22    17   ar
    36     9     3    1
    37    33    27   ar
@<TRIPOS>MOLECULE
*****
 34 37 0 0 0
SMALL
GASTEIGER

@<TRIPOS>ATOM
      1 N         141.9989  139.3813  159.4276 N.3     1  UNL1       -0.2673
      2 C         142.4704  138.5525  160.5855 C.3     1  UNL1        0.1035
      3 C         143.3828  139.1516  161.6143 C.3     1  UNL1        0.1470
      4 C         144.2952  139.7507  162.6433 C.3     1  UNL1        0.1035
      5 N         144.7360  141.1786  162.5143 N.3     1  UNL1       -0.2682
      6 C         144.2644  142.0075  161.3564 C.3     1  UNL1        0.1035
      7 C         143.3520  141.4084  160.3276 C.3     1  UNL1        0.1470
      8 C         142.4397  140.8093  159.2987 C.3     1  UNL1        0.1035
      9 O         143.8236  140.5795  161.4854 O.3     1  UNL1       -0.3530
     10 C         141.0865  138.7822  158.3987 C.3     1  UNL1        0.0916
     11 C         139.6630  138.4671  158.7511 C.3     1  UNL1        0.1131
     12 C         138.0884  140.5332  158.7071 C.3     1  UNL1        0.1149
     13 N         138.8282  139.4800  159.4773 N.3     1  UNL1       -0.1526
     14 S         138.7333  139.4395  160.9737 S.O2    1  UNL1        0.0634
     15 O         138.9541  137.9560  160.9476 O.2     1  UNL1       -0.1528
     16 O         138.5124  140.9229  160.9999 O.2     1  UNL1       -0.1528
     17 C         138.6384  139.3990  162.4702 C.ar    1  UNL1        0.1222
     18 C         138.9860  138.1413  163.2100 C.ar    1  UNL1        0.0206
     19 C         138.8911  138.1009  164.7064 C.ar    1  UNL1        0.0116
     20 C         138.4485  139.3180  165.4631 C.ar    1  UNL1        0.0685
     21 C         138.1008  140.5758  164.7233 C.ar    1  UNL1        0.0116
     22 C         138.1957  140.6163  163.2268 C.ar    1  UNL1        0.0206
     23 C         138.3536  139.2775  166.9595 C.1     1  UNL1        0.1004
     24 N         138.2587  139.2371  168.4560 N.1     1  UNL1       -0.1908
     25 C         145.6483  141.7777  163.5432 C.3     1  UNL1        0.0770
     26 C         145.0973  142.7059  164.5849 C.3     1  UNL1        0.0459
     27 C         143.6213  142.9638  164.6543 C.ar    1  UNL1        0.0068
     28 C         142.7253  142.0033  165.3785 C.ar    1  UNL1        0.0003
     29 C         141.2493  142.2612  165.4480 C.ar    1  UNL1        0.0295
     30 C         140.6692  143.4797  164.7930 C.ar    1  UNL1        0.1424
     31 F         139.1932  143.7376  164.8624 F       1  UNL1       -0.2041
     32 C         141.5653  144.4402  164.0687 C.ar    1  UNL1        0.0589
     33 C         143.0412  144.1823  163.9993 C.ar    1  UNL1        0.1384
     34 F         143.9372  145.1428  163.2751 F       1  UNL1       -0.2044
@<TRIPOS>BOND
     1    12    13    1
     2    13    11    1
     3    11    10    1
     4    10     1    1
     5     1     2    1
     6     2     3    1
     7     3     4    1
     8     4     5    1
     9     5    25    1
    10    25    26    1
    11    26    27    1
    12    27    28   ar
    13    28    29   ar
    14    29    30   ar
    15    30    31    1
    16    30    32   ar
    17    32    33   ar
    18    33    34    1
    19     5     6    1
    20     6     7    1
    21     7     8    1
    22     7     9    1
    23    13    14    1
    24    14    15    2
    25    14    16    2
    26    14    17    1
    27    17    18   ar
    28    18    19   ar
    29    19    20   ar
    30    20    23    1
    31    23    24    3
    32    20    21   ar
    33    21    22   ar
    34     8     1    1
    35    22    17   ar
    36     9     3    1
    37    33    27   ar
@<TRIPOS>MOLECULE
*****
 34 37 0 0 0
SMALL
GASTEIGER

@<TRIPOS>ATOM
      1 N         139.6951  142.2741  159.6246 N.3     1  UNL1       -0.2673
      2 C         141.1510  142.0436  159.3471 C.3     1  UNL1        0.1035
      3 C         142.1906  142.6622  160.2340 C.3     1  UNL1        0.1470
      4 C         143.2303  143.2808  161.1209 C.3     1  UNL1        0.1035
      5 N         142.8139  144.1299  162.2853 N.3     1  UNL1       -0.2682
      6 C         141.3579  144.3603  162.5627 C.3     1  UNL1        0.1035
      7 C         140.3183  143.7417  161.6759 C.3     1  UNL1        0.1470
      8 C         139.2787  143.1232  160.7890 C.3     1  UNL1        0.1035
      9 O         141.7742  143.5113  161.3984 O.3     1  UNL1       -0.3530
     10 C         138.6554  141.6555  158.7377 C.3     1  UNL1        0.0916
     11 C         138.0393  140.3394  159.1094 C.3     1  UNL1        0.1131
     12 C         139.6406  138.2942  159.1663 C.3     1  UNL1        0.1149
     13 N         138.8336  139.3326  159.8877 N.3     1  UNL1       -0.1526
     14 S         138.8208  139.3642  161.3873 S.O2    1  UNL1        0.0634
     15 O         137.4861  140.0483  161.3614 O.2     1  UNL1       -0.1528
     16 O         140.1555  138.6801  161.4131 O.2     1  UNL1       -0.1528
     17 C         138.8080  139.3959  162.8869 C.ar    1  UNL1        0.1222
     18 C         139.2563  138.1953  163.6663 C.ar    1  UNL1        0.0206
     19 C         139.2435  138.2270  165.1659 C.ar    1  UNL1        0.0116
     20 C         138.7824  139.4592  165.8861 C.ar    1  UNL1        0.0685
     21 C         138.3340  140.6600  165.1067 C.ar    1  UNL1        0.0116
     22 C         138.3468  140.6283  163.6071 C.ar    1  UNL1        0.0206
     23 C         138.7696  139.4909  167.3857 C.1     1  UNL1        0.1004
     24 N         138.7568  139.5226  168.8853 N.1     1  UNL1       -0.1908
     25 C         143.8535  144.7484  163.1721 C.3     1  UNL1        0.0770
     26 C         144.1413  144.1531  164.5186 C.3     1  UNL1        0.0459
     27 C         143.8825  142.6964  164.7653 C.ar    1  UNL1        0.0068
     28 C         142.6906  142.2724  165.5711 C.ar    1  UNL1        0.0003
     29 C         142.4318  140.8156  165.8179 C.ar    1  UNL1        0.0295
     30 C         143.3650  139.7828  165.2589 C.ar    1  UNL1        0.1424
     31 F         143.1063  138.3261  165.5057 F       1  UNL1       -0.2041
     32 C         144.5570  140.2069  164.4530 C.ar    1  UNL1        0.0589
     33 C         144.8158  141.6636  164.2063 C.ar    1  UNL1        0.1384
     34 F         146.0077  142.0876  163.4005 F       1  UNL1       -0.2044
@<TRIPOS>BOND
     1    12    13    1
     2    13    11    1
     3    11    10    1
     4    10     1    1
     5     1     2    1
     6     2     3    1
     7     3     4    1
     8     4     5    1
     9     5    25    1
    10    25    26    1
    11    26    27    1
    12    27    28   ar
    13    28    29   ar
    14    29    30   ar
    15    30    31    1
    16    30    32   ar
    17    32    33   ar
    18    33    34    1
    19     5     6    1
    20     6     7    1
    21     7     8    1
    22     7     9    1
    23    13    14    1
    24    14    15    2
    25    14    16    2
    26    14    17    1
    27    17    18   ar
    28    18    19   ar
    29    19    20   ar
    30    20    23    1
    31    23    24    3
    32    20    21   ar
    33    21    22   ar
    34     8     1    1
    35    22    17   ar
    36     9     3    1
    37    33    27   ar
@<TRIPOS>MOLECULE
*****
 34 37 0 0 0
SMALL
GASTEIGER

@<TRIPOS>ATOM
      1 N         142.1941  141.9219  159.0820 N.3     1  UNL1       -0.2673
      2 C         143.0317  142.5421  160.1607 C.3     1  UNL1        0.1035
      3 C         142.3814  143.3524  161.2426 C.3     1  UNL1        0.1470
      4 C         141.7311  144.1628  162.3245 C.3     1  UNL1        0.1035
      5 N         140.2432  144.3529  162.3276 N.3     1  UNL1       -0.2682
      6 C         139.4056  143.7327  161.2487 C.3     1  UNL1        0.1035
      7 C         140.0559  142.9224  160.1669 C.3     1  UNL1        0.1470
      8 C         140.7062  142.1120  159.0850 C.3     1  UNL1        0.1035
      9 O         140.8935  143.5425  161.2457 O.3     1  UNL1       -0.3530
     10 C         142.8444  141.1115  158.0000 C.3     1  UNL1        0.0916
     11 C         143.7238  139.9505  158.3584 C.3     1  UNL1        0.1131
     12 C         142.6109  137.6029  158.3794 C.3     1  UNL1        0.1149
     13 N         143.1581  138.7877  159.1188 N.3     1  UNL1       -0.1526
     14 S         143.1396  138.8099  160.6185 S.O2    1  UNL1        0.0634
     15 O         144.6394  138.7898  160.6372 O.2     1  UNL1       -0.1528
     16 O         141.6399  138.8299  160.5997 O.2     1  UNL1       -0.1528
     17 C         143.1212  138.8320  162.1182 C.ar    1  UNL1        0.1222
     18 C         142.0712  138.0658  162.8667 C.ar    1  UNL1        0.0206
     19 C         142.0527  138.0879  164.3664 C.ar    1  UNL1        0.0116
     20 C         143.0842  138.8763  165.1176 C.ar    1  UNL1        0.0685
     21 C         144.1343  139.6426  164.3691 C.ar    1  UNL1        0.0116
     22 C         144.1528  139.6205  162.8694 C.ar    1  UNL1        0.0206
     23 C         143.0658  138.8984  166.6174 C.1     1  UNL1        0.1004
     24 N         143.0473  138.9206  168.1171 N.1     1  UNL1       -0.1908
     25 C         139.5929  145.1632  163.4094 C.3     1  UNL1        0.0770
     26 C         138.6233  144.5145  164.3525 C.3     1  UNL1        0.0459
     27 C         138.8977  143.1376  164.8804 C.ar    1  UNL1        0.0068
     28 C         139.9830  142.9254  165.8938 C.ar    1  UNL1        0.0003
     29 C         140.2574  141.5485  166.4218 C.ar    1  UNL1        0.0295
     30 C         139.4466  140.3837  165.9363 C.ar    1  UNL1        0.1424
     31 F         139.7210  139.0067  166.4642 F       1  UNL1       -0.2041
     32 C         138.3613  140.5958  164.9227 C.ar    1  UNL1        0.0589
     33 C         138.0869  141.9728  164.3948 C.ar    1  UNL1        0.1384
     34 F         137.0016  142.1849  163.3814 F       1  UNL1       -0.2044
@<TRIPOS>BOND
     1    12    13    1
     2    13    11    1
     3    11    10    1
     4    10     1    1
     5     1     2    1
     6     2     3    1
     7     3     4    1
     8     4     5    1
     9     5    25    1
    10    25    26    1
    11    26    27    1
    12    27    28   ar
    13    28    29   ar
    14    29    30   ar
    15    30    31    1
    16    30    32   ar
    17    32    33   ar
    18    33    34    1
    19     5     6    1
    20     6     7    1
    21     7     8    1
    22     7     9    1
    23    13    14    1
    24    14    15    2
    25    14    16    2
    26    14    17    1
    27    17    18   ar
    28    18    19   ar
    29    19    20   ar
    30    20    23    1
    31    23    24    3
    32    20    21   ar
    33    21    22   ar
    34     8     1    1
    35    22    17   ar
    36     9     3    1
    37    33    27   ar
@<TRIPOS>MOLECULE
*****
 34 37 0 0 0
SMALL
GASTEIGER

@<TRIPOS>ATOM
      1 N         139.3172  139.8975  159.9573 N.3     1  UNL1       -0.2673
      2 C         139.6291  141.3287  159.6347 C.3     1  UNL1        0.1035
      3 C         139.2444  142.4150  160.5948 C.3     1  UNL1        0.1470
      4 C         138.8596  143.5014  161.5549 C.3     1  UNL1        0.1035
      5 N         138.1628  143.1564  162.8377 N.3     1  UNL1       -0.2682
      6 C         137.8509  141.7251  163.1604 C.3     1  UNL1        0.1035
      7 C         138.2356  140.6388  162.2002 C.3     1  UNL1        0.1470
      8 C         138.6204  139.5525  161.2401 C.3     1  UNL1        0.1035
      9 O         138.5476  142.0700  161.8776 O.3     1  UNL1       -0.3530
     10 C         139.7019  138.8111  158.9972 C.3     1  UNL1        0.0916
     11 C         141.0397  138.1434  159.1171 C.3     1  UNL1        0.1131
     12 C         143.1927  139.5798  158.8902 C.3     1  UNL1        0.1149
     13 N         142.1878  138.8723  159.7502 N.3     1  UNL1       -0.1526
     14 S         142.3309  138.8936  161.2432 S.O2    1  UNL1        0.0634
     15 O         141.9806  137.4360  161.2975 O.2     1  UNL1       -0.1528
     16 O         142.6811  140.3511  161.1888 O.2     1  UNL1       -0.1528
     17 C         142.4739  138.9148  162.7362 C.ar    1  UNL1        0.1222
     18 C         143.7783  139.3158  163.3590 C.ar    1  UNL1        0.0206
     19 C         143.9214  139.3371  164.8520 C.ar    1  UNL1        0.0116
     20 C         142.7601  138.9574  165.7222 C.ar    1  UNL1        0.0685
     21 C         141.4557  138.5565  165.0994 C.ar    1  UNL1        0.0116
     22 C         141.3126  138.5352  163.6064 C.ar    1  UNL1        0.0206
     23 C         142.9032  138.9787  167.2152 C.1     1  UNL1        0.1004
     24 N         143.0463  139.0000  168.7082 N.1     1  UNL1       -0.1908
     25 C         137.7781  144.2427  163.7979 C.3     1  UNL1        0.0770
     26 C         138.7714  144.7386  164.8066 C.3     1  UNL1        0.0459
     27 C         140.1910  144.2565  164.7610 C.ar    1  UNL1        0.0068
     28 C         141.2204  145.0272  163.9887 C.ar    1  UNL1        0.0003
     29 C         142.6401  144.5450  163.9431 C.ar    1  UNL1        0.0295
     30 C         143.0304  143.2922  164.6698 C.ar    1  UNL1        0.1424
     31 F         144.4500  142.8100  164.6242 F       1  UNL1       -0.2041
     32 C         142.0009  142.5214  165.4420 C.ar    1  UNL1        0.0589
     33 C         140.5813  143.0036  165.4876 C.ar    1  UNL1        0.1384
     34 F         139.5520  142.2329  166.2599 F       1  UNL1       -0.2044
@<TRIPOS>BOND
     1    12    13    1
     2    13    11    1
     3    11    10    1
     4    10     1    1
     5     1     2    1
     6     2     3    1
     7     3     4    1
     8     4     5    1
     9     5    25    1
    10    25    26    1
    11    26    27    1
    12    27    28   ar
    13    28    29   ar
    14    29    30   ar
    15    30    31    1
    16    30    32   ar
    17    32    33   ar
    18    33    34    1
    19     5     6    1
    20     6     7    1
    21     7     8    1
    22     7     9    1
    23    13    14    1
    24    14    15    2
    25    14    16    2
    26    14    17    1
    27    17    18   ar
    28    18    19   ar
    29    19    20   ar
    30    20    23    1
    31    23    24    3
    32    20    21   ar
    33    21    22   ar
    34     8     1    1
    35    22    17   ar
    36     9     3    1
    37    33    27   ar
@<TRIPOS>MOLECULE
*****
 34 37 0 0 0
SMALL
GASTEIGER

@<TRIPOS>ATOM
      1 N         141.1532  144.0870  160.7855 N.3     1  UNL1       -0.2673
      2 C         140.4051  142.9221  160.2083 C.3     1  UNL1        0.1035
      3 C         141.0759  141.5859  160.0866 C.3     1  UNL1        0.1470
      4 C         141.7466  140.2497  159.9649 C.3     1  UNL1        0.1035
      5 N         143.1655  140.0786  160.4204 N.3     1  UNL1       -0.2682
      6 C         143.9136  141.2436  160.9976 C.3     1  UNL1        0.1035
      7 C         143.2429  142.5797  161.1193 C.3     1  UNL1        0.1470
      8 C         142.5721  143.9158  161.2410 C.3     1  UNL1        0.1035
      9 O         142.4947  141.4148  160.5421 O.3     1  UNL1       -0.3530
     10 C         140.4825  145.4232  160.9072 C.3     1  UNL1        0.0916
     11 C         139.9058  145.8559  162.2225 C.3     1  UNL1        0.1131
     12 C         137.7274  144.5701  162.8150 C.3     1  UNL1        0.1149
     13 N         139.1730  144.8683  163.0815 N.3     1  UNL1       -0.1526
     14 S         139.8860  144.1789  164.2068 S.O2    1  UNL1        0.0634
     15 O         138.7636  143.1893  164.3117 O.2     1  UNL1       -0.1528
     16 O         141.0084  145.1684  164.1019 O.2     1  UNL1       -0.1528
     17 C         140.5990  143.4895  165.3322 C.ar    1  UNL1        0.1222
     18 C         139.8798  143.2155  166.6197 C.ar    1  UNL1        0.0206
     19 C         140.5928  142.5261  167.7450 C.ar    1  UNL1        0.0116
     20 C         142.0250  142.1107  167.5829 C.ar    1  UNL1        0.0685
     21 C         142.7442  142.3847  166.2953 C.ar    1  UNL1        0.0116
     22 C         142.0312  143.0741  165.1700 C.ar    1  UNL1        0.0206
     23 C         142.7380  141.4213  168.7082 C.1     1  UNL1        0.1004
     24 N         143.4509  140.7320  169.8335 N.1     1  UNL1       -0.1908
     25 C         143.8363  138.7425  160.2988 C.3     1  UNL1        0.0770
     26 C         143.9065  137.8276  161.4855 C.3     1  UNL1        0.0459
     27 C         143.1169  138.1409  162.7217 C.ar    1  UNL1        0.0068
     28 C         141.6909  137.6898  162.8352 C.ar    1  UNL1        0.0003
     29 C         140.9012  138.0031  164.0715 C.ar    1  UNL1        0.0295
     30 C         141.5376  138.7675  165.1943 C.ar    1  UNL1        0.1424
     31 F         140.7480  139.0808  166.4305 F       1  UNL1       -0.2041
     32 C         142.9637  139.2186  165.0808 C.ar    1  UNL1        0.0589
     33 C         143.7533  138.9053  163.8445 C.ar    1  UNL1        0.1384
     34 F         145.1793  139.3564  163.7311 F       1  UNL1       -0.2044
@<TRIPOS>BOND
     1    12    13    1
     2    13    11    1
     3    11    10    1
     4    10     1    1
     5     1     2    1
     6     2     3    1
     7     3     4    1
     8     4     5    1
     9     5    25    1
    10    25    26    1
    11    26    27    1
    12    27    28   ar
    13    28    29   ar
    14    29    30   ar
    15    30    31    1
    16    30    32   ar
    17    32    33   ar
    18    33    34    1
    19     5     6    1
    20     6     7    1
    21     7     8    1
    22     7     9    1
    23    13    14    1
    24    14    15    2
    25    14    16    2
    26    14    17    1
    27    17    18   ar
    28    18    19   ar
    29    19    20   ar
    30    20    23    1
    31    23    24    3
    32    20    21   ar
    33    21    22   ar
    34     8     1    1
    35    22    17   ar
    36     9     3    1
    37    33    27   ar
@<TRIPOS>MOLECULE
*****
 34 37 0 0 0
SMALL
GASTEIGER

@<TRIPOS>ATOM
      1 N         138.5341  139.1382  161.8532 N.3     1  UNL1       -0.2673
      2 C         137.8650  140.4009  162.3091 C.3     1  UNL1        0.1035
      3 C         138.2279  141.7121  161.6775 C.3     1  UNL1        0.1470
      4 C         138.5907  143.0234  161.0459 C.3     1  UNL1        0.1035
      5 N         139.6227  143.0720  159.9584 N.3     1  UNL1       -0.2682
      6 C         140.2918  141.8092  159.5025 C.3     1  UNL1        0.1035
      7 C         139.9290  140.4980  160.1341 C.3     1  UNL1        0.1470
      8 C         139.5661  139.1867  160.7657 C.3     1  UNL1        0.1035
      9 O         139.2598  141.7606  160.5900 O.3     1  UNL1       -0.3530
     10 C         138.1713  137.8269  162.4849 C.3     1  UNL1        0.0916
     11 C         138.8802  137.3703  163.7254 C.3     1  UNL1        0.1131
     12 C         141.4620  137.5258  163.4804 C.3     1  UNL1        0.1149
     13 N         140.1868  137.9952  164.1156 N.3     1  UNL1       -0.1526
     14 S         140.2182  139.0895  165.1411 S.O2    1  UNL1        0.0634
     15 O         141.3065  139.7786  164.3724 O.2     1  UNL1       -0.1528
     16 O         139.1299  138.4005  165.9097 O.2     1  UNL1       -0.1528
     17 C         140.2496  140.1838  166.1665 C.ar    1  UNL1        0.1222
     18 C         140.6985  141.5617  165.7794 C.ar    1  UNL1        0.0206
     19 C         140.7299  142.6560  166.8048 C.ar    1  UNL1        0.0116
     20 C         140.3124  142.3725  168.2173 C.ar    1  UNL1        0.0685
     21 C         139.8634  140.9945  168.6045 C.ar    1  UNL1        0.0116
     22 C         139.8320  139.9002  167.5791 C.ar    1  UNL1        0.0206
     23 C         140.3438  143.4668  169.2428 C.1     1  UNL1        0.1004
     24 N         140.3752  144.5611  170.2682 N.1     1  UNL1       -0.1908
     25 C         139.9855  144.3832  159.3268 C.3     1  UNL1        0.0770
     26 C         140.9242  145.3194  160.0285 C.3     1  UNL1        0.0459
     27 C         141.5693  144.9074  161.3185 C.ar    1  UNL1        0.0068
     28 C         141.0444  145.4340  162.6212 C.ar    1  UNL1        0.0003
     29 C         141.6896  145.0220  163.9113 C.ar    1  UNL1        0.0295
     30 C         142.8596  144.0834  163.8985 C.ar    1  UNL1        0.1424
     31 F         143.5047  143.6714  165.1884 F       1  UNL1       -0.2041
     32 C         143.3845  143.5569  162.5956 C.ar    1  UNL1        0.0589
     33 C         142.7394  143.9689  161.3057 C.ar    1  UNL1        0.1384
     34 F         143.2643  143.4424  160.0029 F       1  UNL1       -0.2044
@<TRIPOS>BOND
     1    12    13    1
     2    13    11    1
     3    11    10    1
     4    10     1    1
     5     1     2    1
     6     2     3    1
     7     3     4    1
     8     4     5    1
     9     5    25    1
    10    25    26    1
    11    26    27    1
    12    27    28   ar
    13    28    29   ar
    14    29    30   ar
    15    30    31    1
    16    30    32   ar
    17    32    33   ar
    18    33    34    1
    19     5     6    1
    20     6     7    1
    21     7     8    1
    22     7     9    1
    23    13    14    1
    24    14    15    2
    25    14    16    2
    26    14    17    1
    27    17    18   ar
    28    18    19   ar
    29    19    20   ar
    30    20    23    1
    31    23    24    3
    32    20    21   ar
    33    21    22   ar
    34     8     1    1
    35    22    17   ar
    36     9     3    1
    37    33    27   ar
@<TRIPOS>MOLECULE
*****
 34 37 0 0 0
SMALL
GASTEIGER

@<TRIPOS>ATOM
      1 N         144.1320  141.3878  159.8977 N.3     1  UNL1       -0.2673
      2 C         143.7357  139.9488  160.0460 C.3     1  UNL1        0.1035
      3 C         143.7193  139.3114  161.4037 C.3     1  UNL1        0.1470
      4 C         143.7030  138.6740  162.7614 C.3     1  UNL1        0.1035
      5 N         144.0831  139.4756  163.9709 N.3     1  UNL1       -0.2682
      6 C         144.4794  140.9147  163.8227 C.3     1  UNL1        0.1035
      7 C         144.4958  141.5521  162.4650 C.3     1  UNL1        0.1470
      8 C         144.5121  142.1895  161.1072 C.3     1  UNL1        0.1035
      9 O         144.0994  140.1131  162.6132 O.3     1  UNL1       -0.3530
     10 C         144.1484  142.0253  158.5400 C.3     1  UNL1        0.0916
     11 C         143.3288  143.2541  158.2784 C.3     1  UNL1        0.1131
     12 C         140.9655  142.8069  157.2963 C.3     1  UNL1        0.1149
     13 N         141.8388  143.2117  158.4466 N.3     1  UNL1       -0.1526
     14 S         141.2223  143.5742  159.7651 S.O2    1  UNL1        0.0634
     15 O         140.5446  142.2369  159.8159 O.2     1  UNL1       -0.1528
     16 O         141.9000  144.9114  159.7144 O.2     1  UNL1       -0.1528
     17 C         140.6058  143.9366  161.0836 C.ar    1  UNL1        0.1222
     18 C         139.1992  143.5183  161.3942 C.ar    1  UNL1        0.0206
     19 C         138.5827  143.8808  162.7127 C.ar    1  UNL1        0.0116
     20 C         139.3727  144.6616  163.7207 C.ar    1  UNL1        0.0685
     21 C         140.7794  145.0800  163.4102 C.ar    1  UNL1        0.0116
     22 C         141.3959  144.7175  162.0917 C.ar    1  UNL1        0.0206
     23 C         138.7562  145.0241  165.0392 C.1     1  UNL1        0.1004
     24 N         138.1397  145.3865  166.3577 N.1     1  UNL1       -0.1908
     25 C         144.0667  138.8382  165.3287 C.3     1  UNL1        0.0770
     26 C         142.7953  138.7991  166.1236 C.3     1  UNL1        0.0459
     27 C         141.5063  139.2446  165.4991 C.ar    1  UNL1        0.0068
     28 C         141.1098  140.6904  165.5475 C.ar    1  UNL1        0.0003
     29 C         139.8207  141.1359  164.9230 C.ar    1  UNL1        0.0295
     30 C         138.9282  140.1355  164.2501 C.ar    1  UNL1        0.1424
     31 F         137.6393  140.5810  163.6256 F       1  UNL1       -0.2041
     32 C         139.3248  138.6897  164.2017 C.ar    1  UNL1        0.0589
     33 C         140.6138  138.2442  164.8262 C.ar    1  UNL1        0.1384
     34 F         141.0103  136.7984  164.7778 F       1  UNL1       -0.2044
@<TRIPOS>BOND
     1    12    13    1
     2    13    11    1
     3    11    10    1
     4    10     1    1
     5     1     2    1
     6     2     3    1
     7     3     4    1
     8     4     5    1
     9     5    25    1
    10    25    26    1
    11    26    27    1
    12    27    28   ar
    13    28    29   ar
    14    29    30   ar
    15    30    31    1
    16    30    32   ar
    17    32    33   ar
    18    33    34    1
    19     5     6    1
    20     6     7    1
    21     7     8    1
    22     7     9    1
    23    13    14    1
    24    14    15    2
    25    14    16    2
    26    14    17    1
    27    17    18   ar
    28    18    19   ar
    29    19    20   ar
    30    20    23    1
    31    23    24    3
    32    20    21   ar
    33    21    22   ar
    34     8     1    1
    35    22    17   ar
    36     9     3    1
    37    33    27   ar
@<TRIPOS>MOLECULE
*****
 34 37 0 0 0
SMALL
GASTEIGER

@<TRIPOS>ATOM
      1 N         141.0864  138.4070  159.8543 N.3     1  UNL1       -0.2673
      2 C         142.0062  138.0405  160.9811 C.3     1  UNL1        0.1035
      3 C         141.4540  137.8180  162.3579 C.3     1  UNL1        0.1470
      4 C         140.9017  137.5955  163.7347 C.3     1  UNL1        0.1035
      5 N         139.4297  137.7395  163.9847 N.3     1  UNL1       -0.2682
      6 C         138.5100  138.1061  162.8578 C.3     1  UNL1        0.1035
      7 C         139.0622  138.3286  161.4811 C.3     1  UNL1        0.1470
      8 C         139.6144  138.5511  160.1043 C.3     1  UNL1        0.1035
      9 O         139.9820  137.9620  162.6078 O.3     1  UNL1       -0.3530
     10 C         141.6387  138.6296  158.4775 C.3     1  UNL1        0.0916
     11 C         141.8130  140.0250  157.9558 C.3     1  UNL1        0.1131
     12 C         143.9867  141.3625  158.4423 C.3     1  UNL1        0.1149
     13 N         142.5582  141.0420  158.7687 N.3     1  UNL1       -0.1526
     14 S         141.8747  141.7384  159.9079 S.O2    1  UNL1        0.0634
     15 O         140.6976  142.0284  159.0245 O.2     1  UNL1       -0.1528
     16 O         143.0518  141.4485  160.7913 O.2     1  UNL1       -0.1528
     17 C         141.1913  142.4349  161.0472 C.ar    1  UNL1        0.1222
     18 C         141.9949  142.9364  162.2102 C.ar    1  UNL1        0.0206
     19 C         141.3115  143.6328  163.3494 C.ar    1  UNL1        0.0116
     20 C         139.8244  143.8277  163.3257 C.ar    1  UNL1        0.0685
     21 C         139.0207  143.3262  162.1627 C.ar    1  UNL1        0.0116
     22 C         139.7042  142.6298  161.0234 C.ar    1  UNL1        0.0206
     23 C         139.1410  144.5242  164.4649 C.1     1  UNL1        0.1004
     24 N         138.4576  145.2206  165.6042 N.1     1  UNL1       -0.1908
     25 C         138.8775  137.5170  165.3614 C.3     1  UNL1        0.0770
     26 C         138.1615  138.6280  166.0709 C.3     1  UNL1        0.0459
     27 C         138.9449  139.7168  166.7423 C.ar    1  UNL1        0.0068
     28 C         139.1087  139.7127  168.2333 C.ar    1  UNL1        0.0003
     29 C         139.8922  140.8016  168.9047 C.ar    1  UNL1        0.0295
     30 C         140.5118  141.8944  168.0851 C.ar    1  UNL1        0.1424
     31 F         141.2952  142.9832  168.7564 F       1  UNL1       -0.2041
     32 C         140.3480  141.8984  166.5940 C.ar    1  UNL1        0.0589
     33 C         139.5646  140.8096  165.9226 C.ar    1  UNL1        0.1384
     34 F         139.4008  140.8136  164.4316 F       1  UNL1       -0.2044
@<TRIPOS>BOND
     1    12    13    1
     2    13    11    1
     3    11    10    1
     4    10     1    1
     5     1     2    1
     6     2     3    1
     7     3     4    1
     8     4     5    1
     9     5    25    1
    10    25    26    1
    11    26    27    1
    12    27    28   ar
    13    28    29   ar
    14    29    30   ar
    15    30    31    1
    16    30    32   ar
    17    32    33   ar
    18    33    34    1
    19     5     6    1
    20     6     7    1
    21     7     8    1
    22     7     9    1
    23    13    14    1
    24    14    15    2
    25    14    16    2
    26    14    17    1
    27    17    18   ar
    28    18    19   ar
    29    19    20   ar
    30    20    23    1
    31    23    24    3
    32    20    21   ar
    33    21    22   ar
    34     8     1    1
    35    22    17   ar
    36     9     3    1
    37    33    27   ar
