@<TRIPOS>MOLECULE
*****
 30 33 0 0 0
SMALL
GASTEIGER

@<TRIPOS>ATOM
      1 C         140.5147  144.6813  164.0213 C.ar    1  UNL1        0.1317
      2 C         141.2434  145.2442  162.8373 C.ar    1  UNL1        0.0548
      3 C         142.6161  144.7457  162.4950 C.ar    1  UNL1        0.1049
      4 N         143.2600  143.6842  163.3369 N.ar    1  UNL1       -0.2105
      5 N         144.5926  143.0016  163.2453 N.ar    1  UNL1       -0.1621
      6 C         144.6874  142.0168  164.3727 C.ar    1  UNL1        0.1236
      7 C         143.4134  142.0908  165.1612 C.ar    1  UNL1        0.0569
      8 C         142.5313  143.1213  164.5210 C.ar    1  UNL1        0.1666
      9 N         141.1586  143.6199  164.8632 N.ar    1  UNL1       -0.2120
     10 C         143.0801  141.2772  166.3764 C.ar    1  UNL1        0.0075
     11 C         143.2029  139.7828  166.3353 C.ar    1  UNL1        0.0003
     12 C         142.8695  138.9692  167.5506 C.ar    1  UNL1        0.0031
     13 C         142.4135  139.6498  168.8070 C.ar    1  UNL1        0.0372
     14 C         142.2907  141.1443  168.8481 C.ar    1  UNL1        0.1468
     15 C         142.6240  141.9579  167.6328 C.ar    1  UNL1        0.0373
     16 O         141.8346  141.8251  170.1046 O.3     1  UNL1       -0.4045
     17 C         141.2524  143.2060  170.0404 C.3     1  UNL1        0.5753
     18 F         140.6701  144.5869  169.9762 F       1  UNL1       -0.1328
     19 F         142.5700  143.7813  170.4681 F       1  UNL1       -0.1328
     20 F         139.9348  142.6305  169.6127 F       1  UNL1       -0.1328
     21 N         139.1419  145.1799  164.3636 N.pl3   1  UNL1       -0.3180
     22 H         138.9606  146.1473  164.3845 H       1  UNL1        0.1482
     23 C         138.0455  144.2045  164.6740 C.3     1  UNL1        0.0882
     24 C         137.8931  138.8823  161.9078 C.3     1  UNL1        0.0896
     25 N         137.9312  140.2129  162.5993 N.3     1  UNL1       -0.2715
     26 C         138.1248  140.2806  164.0853 C.3     1  UNL1        0.0722
     27 C         138.1629  141.6111  164.7768 C.3     1  UNL1        0.0191
     28 C         138.0074  142.8739  163.9824 C.3     1  UNL1        0.0223
     29 C         137.8138  142.8062  162.4965 C.3     1  UNL1        0.0191
     30 C         137.7757  141.4757  161.8050 C.3     1  UNL1        0.0722
@<TRIPOS>BOND
     1    24    25    1
     2    25    26    1
     3    26    27    1
     4    27    28    1
     5    28    23    1
     6    23    21    1
     7    21     1    1
     8     1     2   ar
     9     2     3   ar
    10     3     4   ar
    11     4     5   ar
    12     5     6   ar
    13     6     7   ar
    14     7    10    1
    15    10    11   ar
    16    11    12   ar
    17    12    13   ar
    18    13    14   ar
    19    14    16    1
    20    16    17    1
    21    17    18    1
    22    17    19    1
    23    17    20    1
    24    14    15   ar
    25     7     8   ar
    26     8     9   ar
    27    28    29    1
    28    29    30    1
    29    30    25    1
    30     9     1   ar
    31     8     4   ar
    32    15    10   ar
    33    21    22    1
@<TRIPOS>MOLECULE
*****
 30 33 0 0 0
SMALL
GASTEIGER

@<TRIPOS>ATOM
      1 C         143.7022  143.3386  164.5600 C.ar    1  UNL1        0.1317
      2 C         143.6256  144.6634  163.8607 C.ar    1  UNL1        0.0548
      3 C         142.2913  145.2946  163.5939 C.ar    1  UNL1        0.1049
      4 N         141.0336  144.6010  164.0264 N.ar    1  UNL1       -0.2105
      5 N         139.5866  144.9762  163.9013 N.ar    1  UNL1       -0.1621
      6 C         138.7690  143.8832  164.5233 C.ar    1  UNL1        0.1236
      7 C         139.7106  142.8326  165.0328 C.ar    1  UNL1        0.0569
      8 C         141.1102  143.2762  164.7258 C.ar    1  UNL1        0.1666
      9 N         142.4445  142.6451  164.9925 N.ar    1  UNL1       -0.2120
     10 C         139.3210  141.5615  165.7275 C.ar    1  UNL1        0.0075
     11 C         138.3998  140.5895  165.0518 C.ar    1  UNL1        0.0003
     12 C         138.0102  139.3184  165.7465 C.ar    1  UNL1        0.0031
     13 C         138.5418  139.0193  167.1169 C.ar    1  UNL1        0.0372
     14 C         139.4630  139.9913  167.7925 C.ar    1  UNL1        0.1468
     15 C         139.8526  141.2624  167.0979 C.ar    1  UNL1        0.0373
     16 O         139.9947  139.6923  169.1630 O.3     1  UNL1       -0.4045
     17 C         140.1568  140.7989  170.1625 C.3     1  UNL1        0.5753
     18 F         140.3188  141.9055  171.1622 F       1  UNL1       -0.1328
     19 F         141.6350  140.5473  170.2013 F       1  UNL1       -0.1328
     20 F         138.6785  141.0504  170.1237 F       1  UNL1       -0.1328
     21 N         145.0366  142.7074  164.8268 N.pl3   1  UNL1       -0.3180
     22 H         145.4858  142.8525  165.6908 H       1  UNL1        0.1482
     23 C         145.6863  141.8551  163.7774 C.3     1  UNL1        0.0882
     24 C         142.4074  137.9147  160.6593 C.3     1  UNL1        0.0896
     25 N         143.2272  138.8998  161.4389 N.3     1  UNL1       -0.2715
     26 C         143.6332  140.2004  160.8115 C.3     1  UNL1        0.0722
     27 C         144.4529  141.1855  161.5910 C.3     1  UNL1        0.0191
     28 C         144.8666  140.8700  162.9979 C.3     1  UNL1        0.0223
     29 C         144.4605  139.5694  163.6252 C.3     1  UNL1        0.0191
     30 C         143.6408  138.5843  162.8458 C.3     1  UNL1        0.0722
@<TRIPOS>BOND
     1    24    25    1
     2    25    26    1
     3    26    27    1
     4    27    28    1
     5    28    23    1
     6    23    21    1
     7    21     1    1
     8     1     2   ar
     9     2     3   ar
    10     3     4   ar
    11     4     5   ar
    12     5     6   ar
    13     6     7   ar
    14     7    10    1
    15    10    11   ar
    16    11    12   ar
    17    12    13   ar
    18    13    14   ar
    19    14    16    1
    20    16    17    1
    21    17    18    1
    22    17    19    1
    23    17    20    1
    24    14    15   ar
    25     7     8   ar
    26     8     9   ar
    27    28    29    1
    28    29    30    1
    29    30    25    1
    30     9     1   ar
    31     8     4   ar
    32    15    10   ar
    33    21    22    1
@<TRIPOS>MOLECULE
*****
 30 33 0 0 0
SMALL
GASTEIGER

@<TRIPOS>ATOM
      1 C         143.9267  140.2309  164.1826 C.ar    1  UNL1        0.1317
      2 C         145.2840  140.6312  163.6852 C.ar    1  UNL1        0.0548
      3 C         145.4965  141.9971  163.1029 C.ar    1  UNL1        0.1049
      4 N         144.3517  142.9627  163.0181 N.ar    1  UNL1       -0.2105
      5 N         144.2593  144.3667  162.4980 N.ar    1  UNL1       -0.1621
      6 C         142.8449  144.8340  162.6741 C.ar    1  UNL1        0.1236
      7 C         142.0632  143.7189  163.3029 C.ar    1  UNL1        0.0569
      8 C         142.9945  142.5623  163.5155 C.ar    1  UNL1        0.1666
      9 N         142.7819  141.1964  164.0978 N.ar    1  UNL1       -0.2120
     10 C         140.6060  143.7541  163.6570 C.ar    1  UNL1        0.0075
     11 C         140.1112  144.7084  164.7031 C.ar    1  UNL1        0.0003
     12 C         138.6540  144.7436  165.0572 C.ar    1  UNL1        0.0031
     13 C         137.6916  143.8245  164.3652 C.ar    1  UNL1        0.0372
     14 C         138.1864  142.8701  163.3191 C.ar    1  UNL1        0.1468
     15 C         139.6436  142.8349  162.9650 C.ar    1  UNL1        0.0373
     16 O         137.2240  141.9509  162.6270 O.3     1  UNL1       -0.4045
     17 C         137.5135  140.4811  162.5509 C.3     1  UNL1        0.5753
     18 F         137.8031  139.0112  162.4747 F       1  UNL1       -0.1328
     19 F         137.5994  140.4205  164.0472 F       1  UNL1       -0.1328
     20 F         137.4277  140.5418  161.0545 F       1  UNL1       -0.1328
     21 N         143.7141  138.8649  164.7649 N.pl3   1  UNL1       -0.3180
     22 H         144.4569  138.2192  164.7894 H       1  UNL1        0.1482
     23 C         142.3699  138.4828  165.3098 C.3     1  UNL1        0.0882
     24 C         140.2911  141.1140  170.2853 C.3     1  UNL1        0.0896
     25 N         140.8108  140.4562  169.0414 N.3     1  UNL1       -0.2715
     26 C         142.2189  139.9410  168.9977 C.3     1  UNL1        0.0722
     27 C         142.7386  139.2832  167.7539 C.3     1  UNL1        0.0191
     28 C         141.8502  139.1406  166.5537 C.3     1  UNL1        0.0223
     29 C         140.4421  139.6558  166.5974 C.3     1  UNL1        0.0191
     30 C         139.9224  140.3136  167.8413 C.3     1  UNL1        0.0722
@<TRIPOS>BOND
     1    24    25    1
     2    25    26    1
     3    26    27    1
     4    27    28    1
     5    28    23    1
     6    23    21    1
     7    21     1    1
     8     1     2   ar
     9     2     3   ar
    10     3     4   ar
    11     4     5   ar
    12     5     6   ar
    13     6     7   ar
    14     7    10    1
    15    10    11   ar
    16    11    12   ar
    17    12    13   ar
    18    13    14   ar
    19    14    16    1
    20    16    17    1
    21    17    18    1
    22    17    19    1
    23    17    20    1
    24    14    15   ar
    25     7     8   ar
    26     8     9   ar
    27    28    29    1
    28    29    30    1
    29    30    25    1
    30     9     1   ar
    31     8     4   ar
    32    15    10   ar
    33    21    22    1
@<TRIPOS>MOLECULE
*****
 30 33 0 0 0
SMALL
GASTEIGER

@<TRIPOS>ATOM
      1 C         140.2623  144.7816  163.3982 C.ar    1  UNL1        0.1317
      2 C         141.5149  145.3564  162.8062 C.ar    1  UNL1        0.0548
      3 C         142.8554  144.9186  163.3174 C.ar    1  UNL1        0.1049
      4 N         142.9433  143.9060  164.4206 N.ar    1  UNL1       -0.2105
      5 N         144.1148  143.2872  165.1241 N.ar    1  UNL1       -0.1621
      6 C         143.5861  142.3300  166.1509 C.ar    1  UNL1        0.1236
      7 C         142.0879  142.3572  166.0819 C.ar    1  UNL1        0.0569
      8 C         141.6906  143.3312  165.0126 C.ar    1  UNL1        0.1666
      9 N         140.3501  143.7690  164.5014 N.ar    1  UNL1       -0.2120
     10 C         141.1513  141.5519  166.9330 C.ar    1  UNL1        0.0075
     11 C         141.3740  141.4605  168.4135 C.ar    1  UNL1        0.0003
     12 C         140.4375  140.6551  169.2645 C.ar    1  UNL1        0.0031
     13 C         139.2783  139.9411  168.6351 C.ar    1  UNL1        0.0372
     14 C         139.0556  140.0324  167.1545 C.ar    1  UNL1        0.1468
     15 C         139.9921  140.8378  166.3035 C.ar    1  UNL1        0.0373
     16 O         137.8963  139.3183  166.5250 O.3     1  UNL1       -0.4045
     17 C         137.7835  137.8268  166.6375 C.3     1  UNL1        0.5753
     18 F         137.6706  136.3352  166.7500 F       1  UNL1       -0.1328
     19 F         138.8504  137.6675  165.5953 F       1  UNL1       -0.1328
     20 F         136.7165  137.9862  167.6797 F       1  UNL1       -0.1328
     21 N         138.9217  145.2194  162.8871 N.pl3   1  UNL1       -0.3180
     22 H         138.8246  146.0947  162.4469 H       1  UNL1        0.1482
     23 C         137.7292  144.3237  163.0465 C.3     1  UNL1        0.0882
     24 C         138.0729  138.5549  161.4330 C.3     1  UNL1        0.0896
     25 N         137.9870  139.9971  161.8364 N.3     1  UNL1       -0.2715
     26 C         138.2270  141.0753  160.8216 C.3     1  UNL1        0.0722
     27 C         138.1410  142.5175  161.2249 C.3     1  UNL1        0.0191
     28 C         137.8151  142.8814  162.6431 C.3     1  UNL1        0.0223
     29 C         137.5751  141.8032  163.6579 C.3     1  UNL1        0.0191
     30 C         137.6610  140.3611  163.2546 C.3     1  UNL1        0.0722
@<TRIPOS>BOND
     1    24    25    1
     2    25    26    1
     3    26    27    1
     4    27    28    1
     5    28    23    1
     6    23    21    1
     7    21     1    1
     8     1     2   ar
     9     2     3   ar
    10     3     4   ar
    11     4     5   ar
    12     5     6   ar
    13     6     7   ar
    14     7    10    1
    15    10    11   ar
    16    11    12   ar
    17    12    13   ar
    18    13    14   ar
    19    14    16    1
    20    16    17    1
    21    17    18    1
    22    17    19    1
    23    17    20    1
    24    14    15   ar
    25     7     8   ar
    26     8     9   ar
    27    28    29    1
    28    29    30    1
    29    30    25    1
    30     9     1   ar
    31     8     4   ar
    32    15    10   ar
    33    21    22    1
@<TRIPOS>MOLECULE
*****
 30 33 0 0 0
SMALL
GASTEIGER

@<TRIPOS>ATOM
      1 C         139.9272  145.0138  163.2170 C.ar    1  UNL1        0.1317
      2 C         139.5689  145.7789  161.9776 C.ar    1  UNL1        0.0548
      3 C         140.3547  145.5741  160.7164 C.ar    1  UNL1        0.1049
      4 N         141.4986  144.6040  160.6946 N.ar    1  UNL1       -0.2105
      5 N         142.4475  144.1954  159.6070 N.ar    1  UNL1       -0.1621
      6 C         143.3921  143.1776  160.1744 C.ar    1  UNL1        0.1236
      7 C         143.0270  142.9573  161.6125 C.ar    1  UNL1        0.0569
      8 C         141.8568  143.8389  161.9340 C.ar    1  UNL1        0.1666
      9 N         141.0711  144.0438  163.1952 N.ar    1  UNL1       -0.2120
     10 C         143.7119  142.0200  162.5624 C.ar    1  UNL1        0.0075
     11 C         145.1864  142.1458  162.8078 C.ar    1  UNL1        0.0003
     12 C         145.8713  141.2085  163.7577 C.ar    1  UNL1        0.0031
     13 C         145.0819  140.1453  164.4622 C.ar    1  UNL1        0.0372
     14 C         143.6075  140.0195  164.2168 C.ar    1  UNL1        0.1468
     15 C         142.9225  140.9568  163.2669 C.ar    1  UNL1        0.0373
     16 O         142.8179  138.9563  164.9214 O.3     1  UNL1       -0.4045
     17 C         142.8755  138.8459  166.4162 C.3     1  UNL1        0.5753
     18 F         142.9331  138.7355  167.9111 F       1  UNL1       -0.1328
     19 F         141.9686  140.0344  166.5388 F       1  UNL1       -0.1328
     20 F         143.7824  137.6573  166.2934 F       1  UNL1       -0.1328
     21 N         139.1414  145.2186  164.4783 N.pl3   1  UNL1       -0.3180
     22 H         139.3246  145.9980  165.0512 H       1  UNL1        0.1482
     23 C         138.0767  144.2360  164.8666 C.3     1  UNL1        0.0882
     24 C         138.5024  138.5087  163.1296 C.3     1  UNL1        0.0896
     25 N         138.3960  139.9406  163.5639 N.3     1  UNL1       -0.2715
     26 C         139.1118  140.4054  164.7973 C.3     1  UNL1        0.0722
     27 C         139.0054  141.8372  165.2316 C.3     1  UNL1        0.0191
     28 C         138.1832  142.8042  164.4323 C.3     1  UNL1        0.0223
     29 C         137.4673  142.3393  163.1988 C.3     1  UNL1        0.0191
     30 C         137.5737  140.9075  162.7646 C.3     1  UNL1        0.0722
@<TRIPOS>BOND
     1    24    25    1
     2    25    26    1
     3    26    27    1
     4    27    28    1
     5    28    23    1
     6    23    21    1
     7    21     1    1
     8     1     2   ar
     9     2     3   ar
    10     3     4   ar
    11     4     5   ar
    12     5     6   ar
    13     6     7   ar
    14     7    10    1
    15    10    11   ar
    16    11    12   ar
    17    12    13   ar
    18    13    14   ar
    19    14    16    1
    20    16    17    1
    21    17    18    1
    22    17    19    1
    23    17    20    1
    24    14    15   ar
    25     7     8   ar
    26     8     9   ar
    27    28    29    1
    28    29    30    1
    29    30    25    1
    30     9     1   ar
    31     8     4   ar
    32    15    10   ar
    33    21    22    1
@<TRIPOS>MOLECULE
*****
 30 33 0 0 0
SMALL
GASTEIGER

@<TRIPOS>ATOM
      1 C         142.0631  143.9930  163.9061 C.ar    1  UNL1        0.1317
      2 C         141.6240  145.1555  163.0660 C.ar    1  UNL1        0.0548
      3 C         140.2640  145.1521  162.4332 C.ar    1  UNL1        0.1049
      4 N         139.3432  143.9863  162.6406 N.ar    1  UNL1       -0.2105
      5 N         137.9550  143.7036  162.1473 N.ar    1  UNL1       -0.1621
      6 C         137.5363  142.3665  162.6827 C.ar    1  UNL1        0.1236
      7 C         138.6656  141.8228  163.5067 C.ar    1  UNL1        0.0569
      8 C         139.7823  142.8239  163.4807 C.ar    1  UNL1        0.1666
      9 N         141.1423  142.8272  164.1135 N.ar    1  UNL1       -0.2120
     10 C         138.6764  140.5086  164.2299 C.ar    1  UNL1        0.0075
     11 C         138.7946  139.2284  163.4573 C.ar    1  UNL1        0.0003
     12 C         138.8053  137.9142  164.1804 C.ar    1  UNL1        0.0031
     13 C         138.6978  137.8803  165.6761 C.ar    1  UNL1        0.0372
     14 C         138.5796  139.1606  166.4487 C.ar    1  UNL1        0.1468
     15 C         138.5689  140.4747  165.7256 C.ar    1  UNL1        0.0373
     16 O         138.4721  139.1267  167.9446 O.3     1  UNL1       -0.4045
     17 C         139.3946  139.9621  168.7819 C.3     1  UNL1        0.5753
     18 F         140.3171  140.7976  169.6192 F       1  UNL1       -0.1328
     19 F         138.2588  140.2912  169.7048 F       1  UNL1       -0.1328
     20 F         140.5304  139.6329  167.8589 F       1  UNL1       -0.1328
     21 N         143.4231  143.9963  164.5389 N.pl3   1  UNL1       -0.3180
     22 H         143.5563  144.4205  165.4174 H       1  UNL1        0.1482
     23 C         144.5802  143.3534  163.8334 C.3     1  UNL1        0.0882
     24 C         143.9667  137.8920  161.4257 C.3     1  UNL1        0.0896
     25 N         144.1201  139.2574  162.0276 N.3     1  UNL1       -0.2715
     26 C         144.3574  139.4050  163.5013 C.3     1  UNL1        0.0722
     27 C         144.5108  140.7703  164.1033 C.3     1  UNL1        0.0191
     28 C         144.4268  141.9880  163.2315 C.3     1  UNL1        0.0223
     29 C         144.1895  141.8404  161.7577 C.3     1  UNL1        0.0191
     30 C         144.0361  140.4751  161.1558 C.3     1  UNL1        0.0722
@<TRIPOS>BOND
     1    24    25    1
     2    25    26    1
     3    26    27    1
     4    27    28    1
     5    28    23    1
     6    23    21    1
     7    21     1    1
     8     1     2   ar
     9     2     3   ar
    10     3     4   ar
    11     4     5   ar
    12     5     6   ar
    13     6     7   ar
    14     7    10    1
    15    10    11   ar
    16    11    12   ar
    17    12    13   ar
    18    13    14   ar
    19    14    16    1
    20    16    17    1
    21    17    18    1
    22    17    19    1
    23    17    20    1
    24    14    15   ar
    25     7     8   ar
    26     8     9   ar
    27    28    29    1
    28    29    30    1
    29    30    25    1
    30     9     1   ar
    31     8     4   ar
    32    15    10   ar
    33    21    22    1
@<TRIPOS>MOLECULE
*****
 30 33 0 0 0
SMALL
GASTEIGER

@<TRIPOS>ATOM
      1 C         137.8361  141.9763  162.5855 C.ar    1  UNL1        0.1317
      2 C         137.5870  141.1315  161.3713 C.ar    1  UNL1        0.0548
      3 C         137.8912  139.6631  161.4041 C.ar    1  UNL1        0.1049
      4 N         138.4444  139.0394  162.6511 N.ar    1  UNL1       -0.2105
      5 N         138.8382  137.6295  162.9786 N.ar    1  UNL1       -0.1621
      6 C         139.3306  137.6030  164.3952 C.ar    1  UNL1        0.1236
      7 C         139.2411  138.9964  164.9432 C.ar    1  UNL1        0.0569
      8 C         138.6934  139.8842  163.8653 C.ar    1  UNL1        0.1666
      9 N         138.3893  141.3526  163.8325 N.ar    1  UNL1       -0.2120
     10 C         139.6310  139.4267  166.3263 C.ar    1  UNL1        0.0075
     11 C         138.5958  139.4970  167.4096 C.ar    1  UNL1        0.0003
     12 C         138.9856  139.9272  168.7927 C.ar    1  UNL1        0.0031
     13 C         140.4106  140.2871  169.0926 C.ar    1  UNL1        0.0372
     14 C         141.4457  140.2167  168.0093 C.ar    1  UNL1        0.1468
     15 C         141.0559  139.7865  166.6262 C.ar    1  UNL1        0.0373
     16 O         142.8708  140.5766  168.3091 O.3     1  UNL1       -0.4045
     17 C         143.1791  141.7706  169.1631 C.3     1  UNL1        0.5753
     18 F         143.4874  142.9646  170.0172 F       1  UNL1       -0.1328
     19 F         142.6843  142.6767  168.0749 F       1  UNL1       -0.1328
     20 F         143.6738  140.8645  170.2514 F       1  UNL1       -0.1328
     21 N         137.5319  143.4448  162.5527 N.pl3   1  UNL1       -0.3180
     22 H         136.7505  143.7746  162.0529 H       1  UNL1        0.1482
     23 C         138.4184  144.4108  163.2814 C.3     1  UNL1        0.0882
     24 C         144.3724  144.1197  162.5992 C.3     1  UNL1        0.0896
     25 N         142.8839  144.1925  162.7698 N.3     1  UNL1       -0.2715
     26 C         142.2805  144.0997  164.1399 C.3     1  UNL1        0.0722
     27 C         140.7921  144.1725  164.3105 C.3     1  UNL1        0.0191
     28 C         139.9070  144.3380  163.1109 C.3     1  UNL1        0.0223
     29 C         140.5103  144.4308  161.7407 C.3     1  UNL1        0.0191
     30 C         141.9988  144.3580  161.5702 C.3     1  UNL1        0.0722
@<TRIPOS>BOND
     1    24    25    1
     2    25    26    1
     3    26    27    1
     4    27    28    1
     5    28    23    1
     6    23    21    1
     7    21     1    1
     8     1     2   ar
     9     2     3   ar
    10     3     4   ar
    11     4     5   ar
    12     5     6   ar
    13     6     7   ar
    14     7    10    1
    15    10    11   ar
    16    11    12   ar
    17    12    13   ar
    18    13    14   ar
    19    14    16    1
    20    16    17    1
    21    17    18    1
    22    17    19    1
    23    17    20    1
    24    14    15   ar
    25     7     8   ar
    26     8     9   ar
    27    28    29    1
    28    29    30    1
    29    30    25    1
    30     9     1   ar
    31     8     4   ar
    32    15    10   ar
    33    21    22    1
@<TRIPOS>MOLECULE
*****
 30 33 0 0 0
SMALL
GASTEIGER

@<TRIPOS>ATOM
      1 C         143.5778  143.2885  164.4440 C.ar    1  UNL1        0.1317
      2 C         143.4508  144.7249  164.0309 C.ar    1  UNL1        0.0548
      3 C         142.0931  145.3310  163.8332 C.ar    1  UNL1        0.1049
      4 N         140.8624  144.5009  164.0485 N.ar    1  UNL1       -0.2105
      5 N         139.4019  144.8218  163.9304 N.ar    1  UNL1       -0.1621
      6 C         138.6263  143.5838  164.2705 C.ar    1  UNL1        0.1236
      7 C         139.6075  142.4977  164.5988 C.ar    1  UNL1        0.0569
      8 C         140.9895  143.0645  164.4615 C.ar    1  UNL1        0.1666
      9 N         142.3472  142.4583  164.6593 N.ar    1  UNL1       -0.2120
     10 C         139.2666  141.0916  164.9947 C.ar    1  UNL1        0.0075
     11 C         139.1722  140.7230  166.4457 C.ar    1  UNL1        0.0003
     12 C         138.8313  139.3170  166.8416 C.ar    1  UNL1        0.0031
     13 C         138.5848  138.2795  165.7867 C.ar    1  UNL1        0.0372
     14 C         138.6793  138.6481  164.3358 C.ar    1  UNL1        0.1468
     15 C         139.0202  140.0542  163.9398 C.ar    1  UNL1        0.0373
     16 O         138.4328  137.6106  163.2808 O.3     1  UNL1       -0.4045
     17 C         138.7787  137.8990  161.8500 C.3     1  UNL1        0.5753
     18 F         139.1246  138.1874  160.4191 F       1  UNL1       -0.1328
     19 F         137.3610  138.3151  161.5911 F       1  UNL1       -0.1328
     20 F         140.1964  137.4829  162.1089 F       1  UNL1       -0.1328
     21 N         144.9356  142.6822  164.6417 N.pl3   1  UNL1       -0.3180
     22 H         145.3703  142.7256  165.5240 H       1  UNL1        0.1482
     23 C         145.6310  142.0100  163.4953 C.3     1  UNL1        0.0882
     24 C         142.6974  137.9827  160.1523 C.3     1  UNL1        0.0896
     25 N         143.4308  138.9895  160.9881 N.3     1  UNL1       -0.2715
     26 C         143.7305  140.3501  160.4322 C.3     1  UNL1        0.0722
     27 C         144.4639  141.3569  161.2679 C.3     1  UNL1        0.0191
     28 C         144.8976  141.0031  162.6595 C.3     1  UNL1        0.0223
     29 C         144.5979  139.6426  163.2154 C.3     1  UNL1        0.0191
     30 C         143.8645  138.6357  162.3798 C.3     1  UNL1        0.0722
@<TRIPOS>BOND
     1    24    25    1
     2    25    26    1
     3    26    27    1
     4    27    28    1
     5    28    23    1
     6    23    21    1
     7    21     1    1
     8     1     2   ar
     9     2     3   ar
    10     3     4   ar
    11     4     5   ar
    12     5     6   ar
    13     6     7   ar
    14     7    10    1
    15    10    11   ar
    16    11    12   ar
    17    12    13   ar
    18    13    14   ar
    19    14    16    1
    20    16    17    1
    21    17    18    1
    22    17    19    1
    23    17    20    1
    24    14    15   ar
    25     7     8   ar
    26     8     9   ar
    27    28    29    1
    28    29    30    1
    29    30    25    1
    30     9     1   ar
    31     8     4   ar
    32    15    10   ar
    33    21    22    1
@<TRIPOS>MOLECULE
*****
 30 33 0 0 0
SMALL
GASTEIGER

@<TRIPOS>ATOM
      1 C         142.1840  139.4051  164.6304 C.ar    1  UNL1        0.1317
      2 C         143.5380  138.8141  164.8900 C.ar    1  UNL1        0.0548
      3 C         144.7626  139.4656  164.3193 C.ar    1  UNL1        0.1049
      4 N         144.6333  140.7081  163.4889 N.ar    1  UNL1       -0.2105
      5 N         145.6532  141.5654  162.7998 N.ar    1  UNL1       -0.1621
      6 C         144.9296  142.6863  162.1143 C.ar    1  UNL1        0.1236
      7 C         143.4624  142.5217  162.3797 C.ar    1  UNL1        0.0569
      8 C         143.2793  141.2991  163.2293 C.ar    1  UNL1        0.1666
      9 N         142.0547  140.6476  163.8000 N.ar    1  UNL1       -0.2120
     10 C         142.3701  143.4216  161.8828 C.ar    1  UNL1        0.0075
     11 C         142.3083  143.7953  160.4314 C.ar    1  UNL1        0.0003
     12 C         141.2160  144.6952  159.9345 C.ar    1  UNL1        0.0031
     13 C         140.1855  145.2216  160.8889 C.ar    1  UNL1        0.0372
     14 C         140.2473  144.8479  162.3403 C.ar    1  UNL1        0.1468
     15 C         141.3396  143.9480  162.8372 C.ar    1  UNL1        0.0373
     16 O         139.2167  145.3743  163.2949 O.3     1  UNL1       -0.4045
     17 C         138.3648  144.4210  164.0794 C.3     1  UNL1        0.5753
     18 F         137.5129  143.4677  164.8640 F       1  UNL1       -0.1328
     19 F         137.7811  143.8921  162.8029 F       1  UNL1       -0.1328
     20 F         138.9487  144.9499  165.3559 F       1  UNL1       -0.1328
     21 N         140.9593  138.7536  165.2011 N.pl3   1  UNL1       -0.3180
     22 H         140.9260  137.7754  165.3069 H       1  UNL1        0.1482
     23 C         139.7852  139.5926  165.6106 C.3     1  UNL1        0.0882
     24 C         140.1366  143.0665  170.4901 C.3     1  UNL1        0.0896
     25 N         140.0488  142.1980  169.2701 N.3     1  UNL1       -0.2715
     26 C         139.5808  140.7781  169.3925 C.3     1  UNL1        0.0722
     27 C         139.4930  139.9096  168.1726 C.3     1  UNL1        0.0191
     28 C         139.8731  140.4611  166.8305 C.3     1  UNL1        0.0223
     29 C         140.3410  141.8809  166.7082 C.3     1  UNL1        0.0191
     30 C         140.4289  142.7494  167.9280 C.3     1  UNL1        0.0722
@<TRIPOS>BOND
     1    24    25    1
     2    25    26    1
     3    26    27    1
     4    27    28    1
     5    28    23    1
     6    23    21    1
     7    21     1    1
     8     1     2   ar
     9     2     3   ar
    10     3     4   ar
    11     4     5   ar
    12     5     6   ar
    13     6     7   ar
    14     7    10    1
    15    10    11   ar
    16    11    12   ar
    17    12    13   ar
    18    13    14   ar
    19    14    16    1
    20    16    17    1
    21    17    18    1
    22    17    19    1
    23    17    20    1
    24    14    15   ar
    25     7     8   ar
    26     8     9   ar
    27    28    29    1
    28    29    30    1
    29    30    25    1
    30     9     1   ar
    31     8     4   ar
    32    15    10   ar
    33    21    22    1
