@<TRIPOS>MOLECULE
*****
 30 33 0 0 0
SMALL
GASTEIGER

@<TRIPOS>ATOM
      1 C         139.7245  139.7170  167.6749 C.2     1  UNL1        0.1078
      2 N         138.3372  139.1851  167.4692 N.2     1  UNL1       -0.1481
      3 N         138.3226  138.4135  166.1830 N.2     1  UNL1       -0.1516
      4 C         139.7009  138.4686  165.5937 C.2     1  UNL1        0.0979
      5 C         140.2789  137.8892  164.3366 C.3     1  UNL1        0.1651
      6 C         141.7234  138.1155  164.0016 C.2     1  UNL1        0.3110
      7 N         142.5898  138.9211  164.9237 N.2     1  UNL1       -0.0399
      8 C         142.0118  139.5004  166.1808 C.2     1  UNL1        0.2380
      9 C         140.5674  139.2742  166.5157 C.2     1  UNL1        0.0820
     10 C         140.3647  144.3605  169.9172 C.3     1  UNL1        0.0521
     11 C         140.5079  142.8679  169.9570 C.ar    1  UNL1        0.0594
     12 C         140.0447  142.0387  168.7961 C.ar    1  UNL1        0.0163
     13 C         140.1878  140.5461  168.8359 C.ar    1  UNL1        0.0223
     14 C         140.7943  139.8826  170.0368 C.ar    1  UNL1        0.0222
     15 C         141.2575  140.7118  171.1978 C.ar    1  UNL1        0.0985
     16 N         141.1143  142.2044  171.1579 N.ar    1  UNL1       -0.2481
     17 N         142.3014  137.5361  162.7445 N.am    1  UNL1       -0.1565
     18 C         142.1634  138.2742  161.4460 C.2     1  UNL1        0.3925
     19 O         141.4473  139.5916  161.4046 O.2     1  UNL1       -0.2238
     20 N         142.7414  137.6949  160.1889 N.am    1  UNL1       -0.2666
     21 H         142.7714  136.6715  162.7717 H       1  UNL1        0.3027
     22 H         143.2114  136.8303  160.2161 H       1  UNL1        0.1533
     23 C         142.6034  138.4330  158.8904 C.3     1  UNL1        0.0977
     24 C         143.2724  139.7633  158.7090 C.3     1  UNL1        0.0263
     25 C         141.7964  137.8409  157.7733 C.ar    1  UNL1       -0.0044
     26 C         140.4120  138.3484  157.4973 C.ar    1  UNL1       -0.0027
     27 C         139.6050  137.7563  156.3801 C.ar    1  UNL1       -0.0003
     28 C         140.1822  136.6567  155.5389 C.ar    1  UNL1       -0.0000
     29 C         141.5665  136.1491  155.8149 C.ar    1  UNL1       -0.0003
     30 C         142.3736  136.7413  156.9321 C.ar    1  UNL1       -0.0027
@<TRIPOS>BOND
     1    10    11    1
     2    11    12   ar
     3    12    13   ar
     4    13     1    1
     5     1     2    2
     6     2     3    1
     7     3     4    2
     8     4     5    1
     9     5     6    1
    10     6    17    1
    11    17    18   am
    12    18    19    2
    13    18    20   am
    14    20    23    1
    15    23    24    1
    16    23    25    1
    17    25    26   ar
    18    26    27   ar
    19    27    28   ar
    20    28    29   ar
    21    29    30   ar
    22     6     7    2
    23     7     8    1
    24     8     9    2
    25    13    14   ar
    26    14    15   ar
    27    15    16   ar
    28    16    11   ar
    29     9     1    1
    30     9     4    1
    31    30    25   ar
    32    17    21    1
    33    20    22    1
@<TRIPOS>MOLECULE
*****
 30 33 0 0 0
SMALL
GASTEIGER

@<TRIPOS>ATOM
      1 C         141.7715  142.3208  166.0968 C.2     1  UNL1        0.1078
      2 N         143.2561  142.4908  166.2267 N.2     1  UNL1       -0.1481
      3 N         143.7210  143.3750  165.1078 N.2     1  UNL1       -0.1516
      4 C         142.5237  143.7516  164.2864 C.2     1  UNL1        0.0979
      5 C         142.3750  144.6035  163.0609 C.3     1  UNL1        0.1651
      6 C         141.0213  144.8039  162.4466 C.2     1  UNL1        0.3110
      7 N         139.8164  144.1523  163.0578 N.2     1  UNL1       -0.0399
      8 C         139.9652  143.3004  164.2834 C.2     1  UNL1        0.2380
      9 C         141.3188  143.1000  164.8977 C.2     1  UNL1        0.0820
     10 C         138.0849  138.7201  166.7634 C.3     1  UNL1        0.0521
     11 C         139.0503  139.7130  167.3397 C.ar    1  UNL1        0.0594
     12 C         139.9282  140.5205  166.4302 C.ar    1  UNL1        0.0163
     13 C         140.8935  141.5133  167.0064 C.ar    1  UNL1        0.0223
     14 C         140.9810  141.6988  168.4924 C.ar    1  UNL1        0.0222
     15 C         140.1031  140.8914  169.4020 C.ar    1  UNL1        0.0985
     16 N         139.1377  139.8985  168.8256 N.ar    1  UNL1       -0.2481
     17 N         140.8725  145.6559  161.2210 N.am    1  UNL1       -0.1565
     18 C         140.9455  145.0305  159.8595 C.2     1  UNL1        0.3925
     19 O         141.1673  143.5532  159.7236 O.2     1  UNL1       -0.2238
     20 N         140.7968  145.8824  158.6339 N.am    1  UNL1       -0.2666
     21 H         140.7270  146.6255  161.3102 H       1  UNL1        0.3027
     22 H         140.6512  146.8520  158.7231 H       1  UNL1        0.1533
     23 C         140.8698  145.2571  157.2725 C.3     1  UNL1        0.0977
     24 C         142.2013  145.0437  156.6156 C.3     1  UNL1        0.0263
     25 C         139.6113  144.8452  156.5679 C.ar    1  UNL1       -0.0044
     26 C         138.9071  145.8127  155.6632 C.ar    1  UNL1       -0.0027
     27 C         137.6486  145.4008  154.9587 C.ar    1  UNL1       -0.0003
     28 C         137.0942  144.0214  155.1586 C.ar    1  UNL1       -0.0000
     29 C         137.7983  143.0540  156.0631 C.ar    1  UNL1       -0.0003
     30 C         139.0569  143.4658  156.7678 C.ar    1  UNL1       -0.0027
@<TRIPOS>BOND
     1    10    11    1
     2    11    12   ar
     3    12    13   ar
     4    13     1    1
     5     1     2    2
     6     2     3    1
     7     3     4    2
     8     4     5    1
     9     5     6    1
    10     6    17    1
    11    17    18   am
    12    18    19    2
    13    18    20   am
    14    20    23    1
    15    23    24    1
    16    23    25    1
    17    25    26   ar
    18    26    27   ar
    19    27    28   ar
    20    28    29   ar
    21    29    30   ar
    22     6     7    2
    23     7     8    1
    24     8     9    2
    25    13    14   ar
    26    14    15   ar
    27    15    16   ar
    28    16    11   ar
    29     9     1    1
    30     9     4    1
    31    30    25   ar
    32    17    21    1
    33    20    22    1
@<TRIPOS>MOLECULE
*****
 30 33 0 0 0
SMALL
GASTEIGER

@<TRIPOS>ATOM
      1 C         140.4981  145.3725  159.8327 C.2     1  UNL1        0.1078
      2 N         139.5537  146.3219  160.5085 N.2     1  UNL1       -0.1481
      3 N         139.7905  146.2370  161.9873 N.2     1  UNL1       -0.1516
      4 C         140.8813  145.2352  162.2253 C.2     1  UNL1        0.0979
      5 C         141.5327  144.7406  163.4826 C.3     1  UNL1        0.1651
      6 C         142.6216  143.7116  163.4083 C.2     1  UNL1        0.3110
      7 N         143.0589  143.1773  162.0766 N.2     1  UNL1       -0.0399
      8 C         142.4075  143.6720  160.8194 C.2     1  UNL1        0.2380
      9 C         141.3186  144.7009  160.8937 C.2     1  UNL1        0.0820
     10 C         138.9108  142.9017  155.5460 C.3     1  UNL1        0.0521
     11 C         139.8100  143.9008  156.2118 C.ar    1  UNL1        0.0594
     12 C         139.7045  144.1372  157.6893 C.ar    1  UNL1        0.0163
     13 C         140.6036  145.1362  158.3552 C.ar    1  UNL1        0.0223
     14 C         141.6083  145.8991  157.5434 C.ar    1  UNL1        0.0222
     15 C         141.7137  145.6627  156.0659 C.ar    1  UNL1        0.0985
     16 N         140.8146  144.6636  155.4001 N.ar    1  UNL1       -0.2481
     17 N         143.2731  143.2168  164.6656 N.am    1  UNL1       -0.1565
     18 C         142.5532  142.2424  165.5500 C.2     1  UNL1        0.3925
     19 O         141.1817  141.7628  165.1771 O.2     1  UNL1       -0.2238
     20 N         143.2047  141.7477  166.8073 N.am    1  UNL1       -0.2666
     21 H         144.1733  143.5316  164.9103 H       1  UNL1        0.3027
     22 H         144.1048  142.0625  167.0520 H       1  UNL1        0.1533
     23 C         142.4847  140.7733  167.6917 C.3     1  UNL1        0.0977
     24 C         142.8106  139.3110  167.6180 C.3     1  UNL1        0.0263
     25 C         141.4388  141.2612  168.6499 C.ar    1  UNL1       -0.0044
     26 C         141.4704  142.6799  169.1360 C.ar    1  UNL1       -0.0027
     27 C         140.4245  143.1678  170.0942 C.ar    1  UNL1       -0.0003
     28 C         139.3471  142.2371  170.5662 C.ar    1  UNL1       -0.0000
     29 C         139.3155  140.8184  170.0801 C.ar    1  UNL1       -0.0003
     30 C         140.3614  140.3304  169.1219 C.ar    1  UNL1       -0.0027
@<TRIPOS>BOND
     1    10    11    1
     2    11    12   ar
     3    12    13   ar
     4    13     1    1
     5     1     2    2
     6     2     3    1
     7     3     4    2
     8     4     5    1
     9     5     6    1
    10     6    17    1
    11    17    18   am
    12    18    19    2
    13    18    20   am
    14    20    23    1
    15    23    24    1
    16    23    25    1
    17    25    26   ar
    18    26    27   ar
    19    27    28   ar
    20    28    29   ar
    21    29    30   ar
    22     6     7    2
    23     7     8    1
    24     8     9    2
    25    13    14   ar
    26    14    15   ar
    27    15    16   ar
    28    16    11   ar
    29     9     1    1
    30     9     4    1
    31    30    25   ar
    32    17    21    1
    33    20    22    1
@<TRIPOS>MOLECULE
*****
 30 33 0 0 0
SMALL
GASTEIGER

@<TRIPOS>ATOM
      1 C         143.4749  136.6135  156.1612 C.2     1  UNL1        0.1078
      2 N         144.7233  137.1559  155.5310 N.2     1  UNL1       -0.1481
      3 N         144.7473  138.6393  155.7523 N.2     1  UNL1       -0.1516
      4 C         143.5138  139.0136  156.5193 C.2     1  UNL1        0.0979
      5 C         143.0050  140.3328  157.0201 C.3     1  UNL1        0.1651
      6 C         141.7098  140.3999  157.7737 C.2     1  UNL1        0.3110
      7 N         140.9234  139.1478  158.0265 N.2     1  UNL1       -0.0399
      8 C         141.4322  137.8287  157.5256 C.2     1  UNL1        0.2380
      9 C         142.7273  137.7616  156.7720 C.2     1  UNL1        0.0820
     10 C         144.2759  131.6995  157.6483 C.3     1  UNL1        0.0521
     11 C         143.4493  132.7184  156.9213 C.ar    1  UNL1        0.0594
     12 C         143.8754  134.1565  156.9047 C.ar    1  UNL1        0.0163
     13 C         143.0488  135.1754  156.1778 C.ar    1  UNL1        0.0223
     14 C         141.7959  134.7561  155.4673 C.ar    1  UNL1        0.0222
     15 C         141.3698  133.3180  155.4838 C.ar    1  UNL1        0.0985
     16 N         142.1965  132.2991  156.2108 N.ar    1  UNL1       -0.2481
     17 N         141.2010  141.7191  158.2747 N.am    1  UNL1       -0.1565
     18 C         141.4624  142.1345  159.6921 C.2     1  UNL1        0.3925
     19 O         142.2326  141.2307  160.6086 O.2     1  UNL1       -0.2238
     20 N         140.9536  143.4536  160.1930 N.am    1  UNL1       -0.2666
     21 H         140.6955  142.3123  157.6731 H       1  UNL1        0.3027
     22 H         140.4481  144.0468  159.5915 H       1  UNL1        0.1533
     23 C         141.2150  143.8690  161.6105 C.3     1  UNL1        0.0977
     24 C         142.6057  144.2295  162.0421 C.3     1  UNL1        0.0263
     25 C         140.0858  143.9240  162.5963 C.ar    1  UNL1       -0.0044
     26 C         138.8056  143.1958  162.3117 C.ar    1  UNL1       -0.0027
     27 C         137.6765  143.2507  163.2975 C.ar    1  UNL1       -0.0003
     28 C         137.8274  144.0338  164.5680 C.ar    1  UNL1       -0.0000
     29 C         139.1075  144.7619  164.8526 C.ar    1  UNL1       -0.0003
     30 C         140.2368  144.7070  163.8667 C.ar    1  UNL1       -0.0027
@<TRIPOS>BOND
     1    10    11    1
     2    11    12   ar
     3    12    13   ar
     4    13     1    1
     5     1     2    2
     6     2     3    1
     7     3     4    2
     8     4     5    1
     9     5     6    1
    10     6    17    1
    11    17    18   am
    12    18    19    2
    13    18    20   am
    14    20    23    1
    15    23    24    1
    16    23    25    1
    17    25    26   ar
    18    26    27   ar
    19    27    28   ar
    20    28    29   ar
    21    29    30   ar
    22     6     7    2
    23     7     8    1
    24     8     9    2
    25    13    14   ar
    26    14    15   ar
    27    15    16   ar
    28    16    11   ar
    29     9     1    1
    30     9     4    1
    31    30    25   ar
    32    17    21    1
    33    20    22    1
@<TRIPOS>MOLECULE
*****
 30 33 0 0 0
SMALL
GASTEIGER

@<TRIPOS>ATOM
      1 C         143.7121  138.5261  156.1242 C.2     1  UNL1        0.1078
      2 N         145.1088  138.7697  155.6345 N.2     1  UNL1       -0.1481
      3 N         145.5622  140.0963  156.1682 N.2     1  UNL1       -0.1516
      4 C         144.4457  140.6724  156.9876 C.2     1  UNL1        0.0979
      5 C         144.3225  141.9553  157.7550 C.3     1  UNL1        0.1651
      6 C         143.0559  142.2678  158.4952 C.2     1  UNL1        0.3110
      7 N         141.9124  141.2973  158.4681 N.2     1  UNL1       -0.0399
      8 C         142.0356  140.0144  157.7007 C.2     1  UNL1        0.2380
      9 C         143.3022  139.7020  156.9604 C.2     1  UNL1        0.0820
     10 C         142.8335  133.4280  156.6121 C.3     1  UNL1        0.0521
     11 C         142.4332  134.7695  156.0733 C.ar    1  UNL1        0.0594
     12 C         143.2727  135.9771  156.3681 C.ar    1  UNL1        0.0163
     13 C         142.8725  137.3185  155.8294 C.ar    1  UNL1        0.0223
     14 C         141.6326  137.4523  154.9957 C.ar    1  UNL1        0.0222
     15 C         140.7931  136.2448  154.7009 C.ar    1  UNL1        0.0985
     16 N         141.1934  134.9033  155.2397 N.ar    1  UNL1       -0.2481
     17 N         142.9326  143.5507  159.2627 N.am    1  UNL1       -0.1565
     18 C         142.7653  143.5200  160.7530 C.2     1  UNL1        0.3925
     19 O         142.7212  142.2064  161.4759 O.2     1  UNL1       -0.2238
     20 N         142.6421  144.8029  161.5205 N.am    1  UNL1       -0.2666
     21 H         142.9616  144.4129  158.7882 H       1  UNL1        0.3027
     22 H         142.6710  145.6650  161.0460 H       1  UNL1        0.1533
     23 C         142.4747  144.7722  163.0108 C.3     1  UNL1        0.0977
     24 C         143.6508  145.0377  163.9032 C.3     1  UNL1        0.0263
     25 C         141.1313  144.4760  163.6087 C.ar    1  UNL1       -0.0044
     26 C         141.0336  143.6800  164.8764 C.ar    1  UNL1       -0.0027
     27 C         139.6902  143.3838  165.4743 C.ar    1  UNL1       -0.0003
     28 C         138.4445  143.8836  164.8046 C.ar    1  UNL1       -0.0000
     29 C         138.5422  144.6795  163.5370 C.ar    1  UNL1       -0.0003
     30 C         139.8856  144.9758  162.9390 C.ar    1  UNL1       -0.0027
@<TRIPOS>BOND
     1    10    11    1
     2    11    12   ar
     3    12    13   ar
     4    13     1    1
     5     1     2    2
     6     2     3    1
     7     3     4    2
     8     4     5    1
     9     5     6    1
    10     6    17    1
    11    17    18   am
    12    18    19    2
    13    18    20   am
    14    20    23    1
    15    23    24    1
    16    23    25    1
    17    25    26   ar
    18    26    27   ar
    19    27    28   ar
    20    28    29   ar
    21    29    30   ar
    22     6     7    2
    23     7     8    1
    24     8     9    2
    25    13    14   ar
    26    14    15   ar
    27    15    16   ar
    28    16    11   ar
    29     9     1    1
    30     9     4    1
    31    30    25   ar
    32    17    21    1
    33    20    22    1
@<TRIPOS>MOLECULE
*****
 30 33 0 0 0
SMALL
GASTEIGER

@<TRIPOS>ATOM
      1 C         141.9576  142.5334  166.0699 C.2     1  UNL1        0.1078
      2 N         143.4568  142.4981  166.0338 N.2     1  UNL1       -0.1481
      3 N         143.9086  143.2406  164.8113 N.2     1  UNL1       -0.1516
      4 C         142.6887  143.7347  164.0917 C.2     1  UNL1        0.0979
      5 C         142.5201  144.5261  162.8288 C.3     1  UNL1        0.1651
      6 C         141.1457  144.8805  162.3437 C.2     1  UNL1        0.3110
      7 N         139.9399  144.4435  163.1215 N.2     1  UNL1       -0.0399
      8 C         140.1085  143.6520  164.3845 C.2     1  UNL1        0.2380
      9 C         141.4829  143.2976  164.8696 C.2     1  UNL1        0.0820
     10 C         139.7980  142.6937  170.7932 C.3     1  UNL1        0.0521
     11 C         140.0063  141.9934  169.4832 C.ar    1  UNL1        0.0594
     12 C         140.8778  142.6135  168.4315 C.ar    1  UNL1        0.0163
     13 C         141.0861  141.9133  167.1215 C.ar    1  UNL1        0.0223
     14 C         140.4229  140.5929  166.8631 C.ar    1  UNL1        0.0222
     15 C         139.5514  139.9728  167.9148 C.ar    1  UNL1        0.0985
     16 N         139.3431  140.6731  169.2248 N.ar    1  UNL1       -0.2481
     17 N         140.9770  145.6720  161.0806 N.am    1  UNL1       -0.1565
     18 C         140.9800  144.9747  159.7526 C.2     1  UNL1        0.3925
     19 O         141.1517  143.4859  159.6875 O.2     1  UNL1       -0.2238
     20 N         140.8113  145.7661  158.4896 N.am    1  UNL1       -0.2666
     21 H         140.8644  146.6491  161.1233 H       1  UNL1        0.3027
     22 H         140.6987  146.7432  158.5323 H       1  UNL1        0.1533
     23 C         140.8143  145.0688  157.1615 C.3     1  UNL1        0.0977
     24 C         142.1140  144.7655  156.4766 C.3     1  UNL1        0.0263
     25 C         139.5178  144.6748  156.5184 C.ar    1  UNL1       -0.0044
     26 C         138.8611  145.5929  155.5304 C.ar    1  UNL1       -0.0027
     27 C         137.5645  145.1989  154.8873 C.ar    1  UNL1       -0.0003
     28 C         136.9246  143.8868  155.2320 C.ar    1  UNL1       -0.0000
     29 C         137.5812  142.9687  156.2199 C.ar    1  UNL1       -0.0003
     30 C         138.8778  143.3627  156.8631 C.ar    1  UNL1       -0.0027
@<TRIPOS>BOND
     1    10    11    1
     2    11    12   ar
     3    12    13   ar
     4    13     1    1
     5     1     2    2
     6     2     3    1
     7     3     4    2
     8     4     5    1
     9     5     6    1
    10     6    17    1
    11    17    18   am
    12    18    19    2
    13    18    20   am
    14    20    23    1
    15    23    24    1
    16    23    25    1
    17    25    26   ar
    18    26    27   ar
    19    27    28   ar
    20    28    29   ar
    21    29    30   ar
    22     6     7    2
    23     7     8    1
    24     8     9    2
    25    13    14   ar
    26    14    15   ar
    27    15    16   ar
    28    16    11   ar
    29     9     1    1
    30     9     4    1
    31    30    25   ar
    32    17    21    1
    33    20    22    1
@<TRIPOS>MOLECULE
*****
 30 33 0 0 0
SMALL
GASTEIGER

@<TRIPOS>ATOM
      1 C         140.1097  143.2735  165.7680 C.2     1  UNL1        0.1078
      2 N         138.9679  144.2201  165.9921 N.2     1  UNL1       -0.1481
      3 N         138.8689  145.1184  164.7949 N.2     1  UNL1       -0.1516
      4 C         139.9494  144.7270  163.8310 C.2     1  UNL1        0.0979
      5 C         140.3340  145.2615  162.4833 C.3     1  UNL1        0.1651
      6 C         141.4856  144.6558  161.7370 C.2     1  UNL1        0.3110
      7 N         142.2525  143.5155  162.3384 N.2     1  UNL1       -0.0399
      8 C         141.8679  142.9810  163.6861 C.2     1  UNL1        0.2380
      9 C         140.7163  143.5867  164.4324 C.2     1  UNL1        0.0820
     10 C         143.2890  141.6614  169.5487 C.3     1  UNL1        0.0521
     11 C         142.1546  141.3957  168.6039 C.ar    1  UNL1        0.0594
     12 C         141.6993  142.4674  167.6583 C.ar    1  UNL1        0.0163
     13 C         140.5650  142.2018  166.7136 C.ar    1  UNL1        0.0223
     14 C         139.8859  140.8642  166.7144 C.ar    1  UNL1        0.0222
     15 C         140.3412  139.7925  167.6599 C.ar    1  UNL1        0.0985
     16 N         141.4756  140.0582  168.6047 N.ar    1  UNL1       -0.2481
     17 N         141.8703  145.1903  160.3893 N.am    1  UNL1       -0.1565
     18 C         140.9199  145.0689  159.2351 C.2     1  UNL1        0.3925
     19 O         139.5848  144.4131  159.4288 O.2     1  UNL1       -0.2238
     20 N         141.3046  145.6034  157.8874 N.am    1  UNL1       -0.2666
     21 H         142.7466  145.6207  160.2622 H       1  UNL1        0.3027
     22 H         142.1808  146.0338  157.7604 H       1  UNL1        0.1533
     23 C         140.3542  145.4821  156.7333 C.3     1  UNL1        0.0977
     24 C         139.7295  144.1566  156.4123 C.3     1  UNL1        0.0263
     25 C         140.0284  146.6861  155.9002 C.ar    1  UNL1       -0.0044
     26 C         140.6807  146.8712  154.5622 C.ar    1  UNL1       -0.0027
     27 C         140.3550  148.0753  153.7291 C.ar    1  UNL1       -0.0003
     28 C         139.3769  149.0943  154.2340 C.ar    1  UNL1       -0.0000
     29 C         138.7245  148.9093  155.5720 C.ar    1  UNL1       -0.0003
     30 C         139.0503  147.7052  156.4051 C.ar    1  UNL1       -0.0027
@<TRIPOS>BOND
     1    10    11    1
     2    11    12   ar
     3    12    13   ar
     4    13     1    1
     5     1     2    2
     6     2     3    1
     7     3     4    2
     8     4     5    1
     9     5     6    1
    10     6    17    1
    11    17    18   am
    12    18    19    2
    13    18    20   am
    14    20    23    1
    15    23    24    1
    16    23    25    1
    17    25    26   ar
    18    26    27   ar
    19    27    28   ar
    20    28    29   ar
    21    29    30   ar
    22     6     7    2
    23     7     8    1
    24     8     9    2
    25    13    14   ar
    26    14    15   ar
    27    15    16   ar
    28    16    11   ar
    29     9     1    1
    30     9     4    1
    31    30    25   ar
    32    17    21    1
    33    20    22    1
@<TRIPOS>MOLECULE
*****
 30 33 0 0 0
SMALL
GASTEIGER

@<TRIPOS>ATOM
      1 C         139.7612  140.8828  164.0330 C.2     1  UNL1        0.1078
      2 N         140.2159  142.2869  163.7650 N.2     1  UNL1       -0.1481
      3 N         140.5006  142.4097  162.2974 N.2     1  UNL1       -0.1516
      4 C         140.2218  141.0815  161.6584 C.2     1  UNL1        0.0979
      5 C         140.3250  140.6095  160.2384 C.3     1  UNL1        0.1651
      6 C         139.9712  139.1938  159.8910 C.2     1  UNL1        0.3110
      7 N         139.5142  138.2502  160.9637 N.2     1  UNL1       -0.0399
      8 C         139.4110  138.7222  162.3837 C.2     1  UNL1        0.2380
      9 C         139.7648  140.1379  162.7311 C.2     1  UNL1        0.0820
     10 C         140.5771  140.4576  169.1470 C.3     1  UNL1        0.0521
     11 C         139.7792  140.1095  167.9255 C.ar    1  UNL1        0.0594
     12 C         140.1691  140.6702  166.5900 C.ar    1  UNL1        0.0163
     13 C         139.3712  140.3222  165.3685 C.ar    1  UNL1        0.0223
     14 C         138.1833  139.4133  165.4825 C.ar    1  UNL1        0.0222
     15 C         137.7933  138.8526  166.8180 C.ar    1  UNL1        0.0985
     16 N         138.5913  139.2007  168.0395 N.ar    1  UNL1       -0.2481
     17 N         140.0744  138.7218  158.4710 N.am    1  UNL1       -0.1565
     18 C         141.2805  137.9507  158.0227 C.2     1  UNL1        0.3925
     19 O         142.3833  137.6517  158.9946 O.2     1  UNL1       -0.2238
     20 N         141.3837  137.4786  156.6027 N.am    1  UNL1       -0.2666
     21 H         139.3506  138.9180  157.8331 H       1  UNL1        0.3027
     22 H         140.6599  137.6748  155.9649 H       1  UNL1        0.1533
     23 C         142.5898  136.7076  156.1545 C.3     1  UNL1        0.0977
     24 C         143.7880  137.4340  155.6189 C.3     1  UNL1        0.0263
     25 C         142.5977  135.2102  156.2418 C.ar    1  UNL1       -0.0044
     26 C         143.5357  134.5189  157.1866 C.ar    1  UNL1       -0.0027
     27 C         143.5436  133.0215  157.2739 C.ar    1  UNL1       -0.0003
     28 C         142.6136  132.2153  156.4165 C.ar    1  UNL1       -0.0000
     29 C         141.6757  132.9065  155.4718 C.ar    1  UNL1       -0.0003
     30 C         141.6677  134.4039  155.3844 C.ar    1  UNL1       -0.0027
@<TRIPOS>BOND
     1    10    11    1
     2    11    12   ar
     3    12    13   ar
     4    13     1    1
     5     1     2    2
     6     2     3    1
     7     3     4    2
     8     4     5    1
     9     5     6    1
    10     6    17    1
    11    17    18   am
    12    18    19    2
    13    18    20   am
    14    20    23    1
    15    23    24    1
    16    23    25    1
    17    25    26   ar
    18    26    27   ar
    19    27    28   ar
    20    28    29   ar
    21    29    30   ar
    22     6     7    2
    23     7     8    1
    24     8     9    2
    25    13    14   ar
    26    14    15   ar
    27    15    16   ar
    28    16    11   ar
    29     9     1    1
    30     9     4    1
    31    30    25   ar
    32    17    21    1
    33    20    22    1
@<TRIPOS>MOLECULE
*****
 30 33 0 0 0
SMALL
GASTEIGER

@<TRIPOS>ATOM
      1 C         139.5950  145.2123  156.2596 C.2     1  UNL1        0.1078
      2 N         138.9115  143.9753  155.7568 N.2     1  UNL1       -0.1481
      3 N         139.1485  142.8780  156.7516 N.2     1  UNL1       -0.1516
      4 C         139.9785  143.4367  157.8692 C.2     1  UNL1        0.0979
      5 C         140.5186  142.8182  159.1244 C.3     1  UNL1        0.1651
      6 C         141.3347  143.6424  160.0755 C.2     1  UNL1        0.3110
      7 N         141.6107  145.0851  159.7714 N.2     1  UNL1       -0.0399
      8 C         141.0705  145.7036  158.5162 C.2     1  UNL1        0.2380
      9 C         140.2544  144.8794  157.5651 C.2     1  UNL1        0.0820
     10 C         138.2560  150.2317  156.1504 C.3     1  UNL1        0.0521
     11 C         138.9460  149.0574  155.5221 C.ar    1  UNL1        0.0594
     12 C         138.9255  147.7220  156.2050 C.ar    1  UNL1        0.0163
     13 C         139.6155  146.5477  155.5767 C.ar    1  UNL1        0.0223
     14 C         140.3260  146.7087  154.2654 C.ar    1  UNL1        0.0222
     15 C         140.3465  148.0441  153.5826 C.ar    1  UNL1        0.0985
     16 N         139.6565  149.2185  154.2109 N.ar    1  UNL1       -0.2481
     17 N         141.8749  143.0238  161.3308 N.am    1  UNL1       -0.1565
     18 C         140.9551  142.7331  162.4795 C.2     1  UNL1        0.3925
     19 O         139.4952  143.0608  162.3729 O.2     1  UNL1       -0.2238
     20 N         141.4953  142.1146  163.7348 N.am    1  UNL1       -0.2666
     21 H         142.8331  142.8088  161.4008 H       1  UNL1        0.3027
     22 H         142.4534  141.8995  163.8047 H       1  UNL1        0.1533
     23 C         140.5755  141.8238  164.8835 C.3     1  UNL1        0.0977
     24 C         140.2572  142.8988  165.8801 C.3     1  UNL1        0.0263
     25 C         139.9741  140.4581  165.0356 C.ar    1  UNL1       -0.0044
     26 C         138.8125  140.2490  165.9614 C.ar    1  UNL1       -0.0027
     27 C         138.2111  138.8833  166.1135 C.ar    1  UNL1       -0.0003
     28 C         138.7712  137.7267  165.3399 C.ar    1  UNL1       -0.0000
     29 C         139.9328  137.9358  164.4142 C.ar    1  UNL1       -0.0003
     30 C         140.5343  139.3015  164.2620 C.ar    1  UNL1       -0.0027
@<TRIPOS>BOND
     1    10    11    1
     2    11    12   ar
     3    12    13   ar
     4    13     1    1
     5     1     2    2
     6     2     3    1
     7     3     4    2
     8     4     5    1
     9     5     6    1
    10     6    17    1
    11    17    18   am
    12    18    19    2
    13    18    20   am
    14    20    23    1
    15    23    24    1
    16    23    25    1
    17    25    26   ar
    18    26    27   ar
    19    27    28   ar
    20    28    29   ar
    21    29    30   ar
    22     6     7    2
    23     7     8    1
    24     8     9    2
    25    13    14   ar
    26    14    15   ar
    27    15    16   ar
    28    16    11   ar
    29     9     1    1
    30     9     4    1
    31    30    25   ar
    32    17    21    1
    33    20    22    1
