@<TRIPOS>MOLECULE
*****
 36 39 0 0 0
SMALL
GASTEIGER

@<TRIPOS>ATOM
      1 C         140.9268  141.5216  160.1479 C.3     1  UNL1        0.0545
      2 C         142.3010  141.3192  159.5817 C.3     1  UNL1        0.0162
      3 C         142.8660  140.0623  160.1742 C.3     1  UNL1        0.0100
      4 C         141.8409  139.4879  161.1066 C.3     1  UNL1        0.0704
      5 C         140.6425  140.3898  161.0903 C.3     1  UNL1        0.0243
      6 C         141.0310  138.6901  162.0851 C.2     1  UNL1        0.2248
      7 O         140.3673  137.4178  161.6482 O.2     1  UNL1       -0.2749
      8 N         140.8847  139.1646  163.5005 N.am    1  UNL1       -0.2760
      9 C         141.5484  140.4369  163.9374 C.3     1  UNL1        0.1149
     10 C         141.4021  140.9114  165.3528 C.3     1  UNL1        0.1137
     11 N         140.5922  140.1137  166.3314 N.pl3   1  UNL1       -0.2897
     12 C         139.9285  138.8414  165.8946 C.3     1  UNL1        0.1137
     13 C         140.0748  138.3669  164.4791 C.3     1  UNL1        0.1149
     14 C         140.4460  140.5883  167.7468 C.ar    1  UNL1        0.1350
     15 C         139.2831  140.1291  168.5755 C.ar    1  UNL1        0.0550
     16 C         139.1369  140.6036  169.9909 C.ar    1  UNL1        0.1034
     17 N         140.1536  141.5374  170.5776 N.ar    1  UNL1       -0.2217
     18 C         141.3165  141.9967  169.7490 C.ar    1  UNL1        0.2363
     19 N         141.4628  141.5221  168.3335 N.ar    1  UNL1       -0.2084
     20 C         142.3332  142.9305  170.3357 C.3     1  UNL1        0.4523
     21 F         143.3499  143.8643  170.9225 F       1  UNL1       -0.1632
     22 F         143.3124  141.7989  170.4398 F       1  UNL1       -0.1632
     23 F         141.3540  144.0620  170.2316 F       1  UNL1       -0.1632
     24 C         142.8700  138.4192  161.3274 C.3     1  UNL1        0.0082
     25 C         143.1632  137.4247  160.2434 C.3     1  UNL1        0.0005
     26 C         143.4598  138.1829  162.0790 C.3     1  UNL1        0.0005
     27 N         139.9997  142.6565  159.8278 N.3     1  UNL1       -0.2975
     28 H         140.4197  143.1703  159.0532 H       1  UNL1        0.1232
     29 C         138.5023  143.4242  161.8074 C.3     1  UNL1        0.1591
     30 C         138.1611  144.4342  162.8625 C.3     1  UNL1        0.1729
     31 O         138.9761  145.6867  162.9933 O.3     1  UNL1       -0.3511
     32 C         140.1323  145.9291  162.0690 C.3     1  UNL1        0.1437
     33 C         140.4735  144.9191  161.0138 C.3     1  UNL1        0.0503
     34 C         139.6585  143.6666  160.8830 C.3     1  UNL1        0.0865
     35 C         137.5275  141.2546  162.8527 C.3     1  UNL1        0.1742
     36 O         137.6873  142.1717  161.6766 O.3     1  UNL1       -0.3496
@<TRIPOS>BOND
     1    35    36    1
     2    29    36    1
     3    29    30    1
     4    30    31    1
     5    31    32    1
     6    32    33    1
     7    33    34    1
     8    34    27    1
     9     1    27    1
    10     1     2    1
    11     2     3    1
    12     3     4    1
    13     4     6    1
    14     6     7    2
    15     6     8   am
    16     8     9    1
    17     9    10    1
    18    10    11    1
    19    11    14    1
    20    14    15   ar
    21    15    16   ar
    22    16    17   ar
    23    17    18   ar
    24    18    20    1
    25    20    21    1
    26    20    22    1
    27    20    23    1
    28    18    19   ar
    29    11    12    1
    30    12    13    1
    31     4    24    1
    32    24    25    1
    33    24    26    1
    34     4     5    1
    35    34    29    1
    36     5     1    1
    37    13     8    1
    38    19    14   ar
    39    27    28    1
@<TRIPOS>MOLECULE
*****
 36 39 0 0 0
SMALL
GASTEIGER

@<TRIPOS>ATOM
      1 C         139.3637  142.1086  164.2712 C.3     1  UNL1        0.0545
      2 C         138.0163  141.6187  164.7125 C.3     1  UNL1        0.0162
      3 C         138.1031  140.1335  164.9045 C.3     1  UNL1        0.0100
      4 C         139.5041  139.7055  164.5819 C.3     1  UNL1        0.0704
      5 C         140.2831  140.9262  164.1906 C.3     1  UNL1        0.0243
      6 C         140.7988  138.9912  164.3302 C.2     1  UNL1        0.2248
      7 O         141.6145  138.4881  165.4840 O.2     1  UNL1       -0.2749
      8 N         141.2778  138.7800  162.9245 N.am    1  UNL1       -0.2760
      9 C         140.4621  139.2831  161.7706 C.3     1  UNL1        0.1149
     10 C         140.9410  139.0719  160.3649 C.3     1  UNL1        0.1137
     11 N         142.2358  138.3576  160.1131 N.pl3   1  UNL1       -0.2897
     12 C         143.0515  137.8545  161.2669 C.3     1  UNL1        0.1137
     13 C         142.5725  138.0656  162.6726 C.3     1  UNL1        0.1149
     14 C         142.7147  138.1464  158.7074 C.ar    1  UNL1        0.1350
     15 C         142.9449  139.3248  157.8084 C.ar    1  UNL1        0.0550
     16 C         143.4239  139.1136  156.4027 C.ar    1  UNL1        0.1034
     17 N         143.6726  137.7239  155.8960 N.ar    1  UNL1       -0.2217
     18 C         143.4424  136.5454  156.7950 C.ar    1  UNL1        0.2363
     19 N         142.9635  136.7566  158.2007 N.ar    1  UNL1       -0.2084
     20 C         143.6912  135.1557  156.2882 C.3     1  UNL1        0.4523
     21 F         143.9400  133.7660  155.7814 F       1  UNL1       -0.1632
     22 F         143.0791  134.5912  157.5358 F       1  UNL1       -0.1632
     23 F         144.3034  135.7203  155.0406 F       1  UNL1       -0.1632
     24 C         138.9957  138.3357  164.9206 C.3     1  UNL1        0.0082
     25 C         138.2253  138.1137  166.1885 C.3     1  UNL1        0.0005
     26 C         139.0452  137.4588  164.4764 C.3     1  UNL1        0.0005
     27 N         139.7276  143.5310  163.9646 N.3     1  UNL1       -0.2975
     28 H         138.8801  143.9849  163.6237 H       1  UNL1        0.1232
     29 C         140.4678  144.0017  161.5190 C.3     1  UNL1        0.1591
     30 C         141.5495  144.3012  160.5240 C.3     1  UNL1        0.1729
     31 O         142.9729  144.4296  160.9795 O.3     1  UNL1       -0.3511
     32 C         143.3145  144.2585  162.4300 C.3     1  UNL1        0.1437
     33 C         142.2328  143.9590  163.4250 C.3     1  UNL1        0.0503
     34 C         140.8094  143.8306  162.9695 C.3     1  UNL1        0.0865
     35 C         138.5057  142.5344  160.6546 C.3     1  UNL1        0.1742
     36 O         139.0444  143.8732  161.0635 O.3     1  UNL1       -0.3496
@<TRIPOS>BOND
     1    35    36    1
     2    29    36    1
     3    29    30    1
     4    30    31    1
     5    31    32    1
     6    32    33    1
     7    33    34    1
     8    34    27    1
     9     1    27    1
    10     1     2    1
    11     2     3    1
    12     3     4    1
    13     4     6    1
    14     6     7    2
    15     6     8   am
    16     8     9    1
    17     9    10    1
    18    10    11    1
    19    11    14    1
    20    14    15   ar
    21    15    16   ar
    22    16    17   ar
    23    17    18   ar
    24    18    20    1
    25    20    21    1
    26    20    22    1
    27    20    23    1
    28    18    19   ar
    29    11    12    1
    30    12    13    1
    31     4    24    1
    32    24    25    1
    33    24    26    1
    34     4     5    1
    35    34    29    1
    36     5     1    1
    37    13     8    1
    38    19    14   ar
    39    27    28    1
@<TRIPOS>MOLECULE
*****
 36 39 0 0 0
SMALL
GASTEIGER

@<TRIPOS>ATOM
      1 C         139.1107  140.7312  165.5252 C.3     1  UNL1        0.0545
      2 C         139.0782  139.6941  166.6084 C.3     1  UNL1        0.0162
      3 C         140.4885  139.2582  166.8753 C.3     1  UNL1        0.0100
      4 C         141.3926  140.0259  165.9570 C.3     1  UNL1        0.0704
      5 C         140.5411  140.9363  165.1227 C.3     1  UNL1        0.0243
      6 C         142.5241  140.6297  165.1792 C.2     1  UNL1        0.2248
      7 O         143.4853  141.5621  165.8550 O.2     1  UNL1       -0.2749
      8 N         142.6944  140.3012  163.7256 N.am    1  UNL1       -0.2760
      9 C         141.7331  139.3688  163.0498 C.3     1  UNL1        0.1149
     10 C         141.9034  139.0402  161.5962 C.3     1  UNL1        0.1137
     11 N         143.0349  139.6440  160.8183 N.pl3   1  UNL1       -0.2897
     12 C         143.9961  140.5764  161.4940 C.3     1  UNL1        0.1137
     13 C         143.8259  140.9050  162.9477 C.3     1  UNL1        0.1149
     14 C         143.2051  139.3154  159.3647 C.ar    1  UNL1        0.1350
     15 C         143.8797  140.2930  158.4487 C.ar    1  UNL1        0.0550
     16 C         144.0500  139.9644  156.9951 C.ar    1  UNL1        0.1034
     17 N         143.5455  138.6581  156.4575 N.ar    1  UNL1       -0.2217
     18 C         142.8709  137.6804  157.3734 C.ar    1  UNL1        0.2363
     19 N         142.7006  138.0090  158.8270 N.ar    1  UNL1       -0.2084
     20 C         142.3664  136.3741  156.8357 C.3     1  UNL1        0.4523
     21 F         141.8620  135.0679  156.2980 F       1  UNL1       -0.1632
     22 F         143.7765  135.8741  156.7277 F       1  UNL1       -0.1632
     23 F         140.9564  136.8742  156.9436 F       1  UNL1       -0.1632
     24 C         142.4805  139.2418  166.6288 C.3     1  UNL1        0.0082
     25 C         142.7073  139.3858  168.1046 C.3     1  UNL1        0.0005
     26 C         143.1494  138.5921  166.3138 C.3     1  UNL1        0.0005
     27 N         137.9217  141.4390  164.9462 N.3     1  UNL1       -0.2975
     28 H         137.2613  140.7173  164.6573 H       1  UNL1        0.1232
     29 C         137.9656  141.8324  162.3785 C.3     1  UNL1        0.1591
     30 C         138.1383  142.7549  161.2084 C.3     1  UNL1        0.1729
     31 O         138.4400  144.2065  161.4359 O.3     1  UNL1       -0.3511
     32 C         138.5689  144.7356  162.8335 C.3     1  UNL1        0.1437
     33 C         138.3962  143.8132  164.0036 C.3     1  UNL1        0.0503
     34 C         138.0945  142.3615  163.7761 C.3     1  UNL1        0.0865
     35 C         137.6685  139.8230  160.7585 C.3     1  UNL1        0.1742
     36 O         137.6639  140.3808  162.1509 O.3     1  UNL1       -0.3496
@<TRIPOS>BOND
     1    35    36    1
     2    29    36    1
     3    29    30    1
     4    30    31    1
     5    31    32    1
     6    32    33    1
     7    33    34    1
     8    34    27    1
     9     1    27    1
    10     1     2    1
    11     2     3    1
    12     3     4    1
    13     4     6    1
    14     6     7    2
    15     6     8   am
    16     8     9    1
    17     9    10    1
    18    10    11    1
    19    11    14    1
    20    14    15   ar
    21    15    16   ar
    22    16    17   ar
    23    17    18   ar
    24    18    20    1
    25    20    21    1
    26    20    22    1
    27    20    23    1
    28    18    19   ar
    29    11    12    1
    30    12    13    1
    31     4    24    1
    32    24    25    1
    33    24    26    1
    34     4     5    1
    35    34    29    1
    36     5     1    1
    37    13     8    1
    38    19    14   ar
    39    27    28    1
@<TRIPOS>MOLECULE
*****
 36 39 0 0 0
SMALL
GASTEIGER

@<TRIPOS>ATOM
      1 C         141.0524  141.8439  164.8162 C.3     1  UNL1        0.0545
      2 C         141.3890  140.9122  165.9424 C.3     1  UNL1        0.0162
      3 C         140.8577  139.5533  165.5944 C.3     1  UNL1        0.0100
      4 C         140.1927  139.6452  164.2530 C.3     1  UNL1        0.0704
      5 C         140.3130  141.0609  163.7721 C.3     1  UNL1        0.0243
      6 C         139.4710  139.4319  162.9555 C.2     1  UNL1        0.2248
      7 O         137.9762  139.5441  162.9014 O.2     1  UNL1       -0.2749
      8 N         140.2441  139.1064  161.7119 N.am    1  UNL1       -0.2760
      9 C         141.7389  138.9942  161.7660 C.3     1  UNL1        0.1149
     10 C         142.5121  138.6687  160.5226 C.3     1  UNL1        0.1137
     11 N         141.7905  138.4554  159.2250 N.pl3   1  UNL1       -0.2897
     12 C         140.2957  138.5676  159.1709 C.3     1  UNL1        0.1137
     13 C         139.5225  138.8931  160.4144 C.3     1  UNL1        0.1149
     14 C         142.5637  138.1299  157.9815 C.ar    1  UNL1        0.1350
     15 C         143.1414  139.2342  157.1469 C.ar    1  UNL1        0.0550
     16 C         143.9145  138.9087  155.9034 C.ar    1  UNL1        0.1034
     17 N         144.1100  137.4788  155.4946 N.ar    1  UNL1       -0.2217
     18 C         143.5323  136.3744  156.3292 C.ar    1  UNL1        0.2363
     19 N         142.7591  136.6999  157.5727 N.ar    1  UNL1       -0.2084
     20 C         143.7278  134.9446  155.9203 C.3     1  UNL1        0.4523
     21 F         143.9232  133.5147  155.5114 F       1  UNL1       -0.1632
     22 F         143.9730  134.5688  157.3516 F       1  UNL1       -0.1632
     23 F         143.4825  135.3203  154.4890 F       1  UNL1       -0.1632
     24 C         139.9215  138.1850  164.4627 C.3     1  UNL1        0.0082
     25 C         141.0632  137.2185  164.5747 C.3     1  UNL1        0.0005
     26 C         139.1017  137.6480  164.5545 C.3     1  UNL1        0.0005
     27 N         141.3950  143.3026  164.7463 N.3     1  UNL1       -0.2975
     28 H         140.8786  143.7626  165.4961 H       1  UNL1        0.1232
     29 C         139.9081  144.9576  163.4044 C.3     1  UNL1        0.1591
     30 C         139.6334  145.7332  162.1503 C.3     1  UNL1        0.1729
     31 O         140.5708  145.6296  160.9838 O.3     1  UNL1       -0.3511
     32 C         141.7828  144.7503  161.0715 C.3     1  UNL1        0.1437
     33 C         142.0575  143.9746  162.3256 C.3     1  UNL1        0.0503
     34 C         141.1202  144.0783  163.4921 C.3     1  UNL1        0.0865
     35 C         137.8500  144.0760  164.7223 C.3     1  UNL1        0.1742
     36 O         138.9708  145.0613  164.5709 O.3     1  UNL1       -0.3496
@<TRIPOS>BOND
     1    35    36    1
     2    29    36    1
     3    29    30    1
     4    30    31    1
     5    31    32    1
     6    32    33    1
     7    33    34    1
     8    34    27    1
     9     1    27    1
    10     1     2    1
    11     2     3    1
    12     3     4    1
    13     4     6    1
    14     6     7    2
    15     6     8   am
    16     8     9    1
    17     9    10    1
    18    10    11    1
    19    11    14    1
    20    14    15   ar
    21    15    16   ar
    22    16    17   ar
    23    17    18   ar
    24    18    20    1
    25    20    21    1
    26    20    22    1
    27    20    23    1
    28    18    19   ar
    29    11    12    1
    30    12    13    1
    31     4    24    1
    32    24    25    1
    33    24    26    1
    34     4     5    1
    35    34    29    1
    36     5     1    1
    37    13     8    1
    38    19    14   ar
    39    27    28    1
@<TRIPOS>MOLECULE
*****
 36 39 0 0 0
SMALL
GASTEIGER

@<TRIPOS>ATOM
      1 C         141.7148  141.2970  165.8936 C.3     1  UNL1        0.0545
      2 C         141.5688  140.2636  166.9709 C.3     1  UNL1        0.0162
      3 C         140.5086  139.2931  166.5418 C.3     1  UNL1        0.0100
      4 C         139.9993  139.7268  165.1992 C.3     1  UNL1        0.0704
      5 C         140.7448  140.9653  164.7986 C.3     1  UNL1        0.0243
      6 C         139.3038  139.9095  163.8829 C.2     1  UNL1        0.2248
      7 O         137.8678  140.3415  163.8469 O.2     1  UNL1       -0.2749
      8 N         140.0443  139.6603  162.6024 N.am    1  UNL1       -0.2760
      9 C         141.4803  139.2284  162.6384 C.3     1  UNL1        0.1149
     10 C         142.2209  138.9791  161.3579 C.3     1  UNL1        0.1137
     11 N         141.5255  139.1619  160.0415 N.pl3   1  UNL1       -0.2897
     12 C         140.0895  139.5938  160.0055 C.3     1  UNL1        0.1137
     13 C         139.3489  139.8431  161.2859 C.3     1  UNL1        0.1149
     14 C         142.2660  138.9126  158.7611 C.ar    1  UNL1        0.1350
     15 C         143.0252  140.0273  158.1046 C.ar    1  UNL1        0.0550
     16 C         143.7658  139.7780  156.8242 C.ar    1  UNL1        0.1034
     17 N         143.7471  138.4141  156.2003 N.ar    1  UNL1       -0.2217
     18 C         142.9879  137.2994  156.8568 C.ar    1  UNL1        0.2363
     19 N         142.2473  137.5486  158.1373 N.ar    1  UNL1       -0.2084
     20 C         142.9693  135.9354  156.2329 C.3     1  UNL1        0.4523
     21 F         142.9506  134.5715  155.6090 F       1  UNL1       -0.1632
     22 F         144.4404  136.0404  155.9594 F       1  UNL1       -0.1632
     23 F         141.4982  135.8304  156.5064 F       1  UNL1       -0.1632
     24 C         139.1085  138.5266  165.3246 C.3     1  UNL1        0.0082
     25 C         138.0353  138.4951  166.3722 C.3     1  UNL1        0.0005
     26 C         139.0446  137.6694  164.8451 C.3     1  UNL1        0.0005
     27 N         142.6641  142.4584  165.9086 N.3     1  UNL1       -0.2975
     28 H         142.2846  143.1404  166.5652 H       1  UNL1        0.1232
     29 C         144.1870  142.8587  163.8420 C.3     1  UNL1        0.1591
     30 C         144.4857  143.5996  162.5725 C.3     1  UNL1        0.1729
     31 O         143.5601  144.6812  162.0999 O.3     1  UNL1       -0.3511
     32 C         142.3358  145.0218  162.8968 C.3     1  UNL1        0.1437
     33 C         142.0372  144.2809  164.1663 C.3     1  UNL1        0.0503
     34 C         142.9628  143.1993  164.6389 C.3     1  UNL1        0.0865
     35 C         144.9835  140.3869  163.7665 C.3     1  UNL1        0.1742
     36 O         145.1127  141.7771  164.3147 O.3     1  UNL1       -0.3496
@<TRIPOS>BOND
     1    35    36    1
     2    29    36    1
     3    29    30    1
     4    30    31    1
     5    31    32    1
     6    32    33    1
     7    33    34    1
     8    34    27    1
     9     1    27    1
    10     1     2    1
    11     2     3    1
    12     3     4    1
    13     4     6    1
    14     6     7    2
    15     6     8   am
    16     8     9    1
    17     9    10    1
    18    10    11    1
    19    11    14    1
    20    14    15   ar
    21    15    16   ar
    22    16    17   ar
    23    17    18   ar
    24    18    20    1
    25    20    21    1
    26    20    22    1
    27    20    23    1
    28    18    19   ar
    29    11    12    1
    30    12    13    1
    31     4    24    1
    32    24    25    1
    33    24    26    1
    34     4     5    1
    35    34    29    1
    36     5     1    1
    37    13     8    1
    38    19    14   ar
    39    27    28    1
@<TRIPOS>MOLECULE
*****
 36 39 0 0 0
SMALL
GASTEIGER

@<TRIPOS>ATOM
      1 C         140.8932  142.0289  165.8444 C.3     1  UNL1        0.0545
      2 C         140.3447  140.9116  166.6815 C.3     1  UNL1        0.0162
      3 C         141.1388  139.6748  166.3818 C.3     1  UNL1        0.0100
      4 C         142.1781  140.0277  165.3593 C.3     1  UNL1        0.0704
      5 C         142.0263  141.4826  165.0273 C.3     1  UNL1        0.0243
      6 C         143.2980  140.0788  164.3628 C.2     1  UNL1        0.2248
      7 O         144.6616  140.5353  164.7896 O.2     1  UNL1       -0.2749
      8 N         143.0544  139.6732  162.9393 N.am    1  UNL1       -0.2760
      9 C         141.6908  139.2167  162.5125 C.3     1  UNL1        0.1149
     10 C         141.4471  138.8112  161.0891 C.3     1  UNL1        0.1137
     11 N         142.5669  138.8622  160.0925 N.pl3   1  UNL1       -0.2897
     12 C         143.9305  139.3187  160.5193 C.3     1  UNL1        0.1137
     13 C         144.1742  139.7243  161.9427 C.3     1  UNL1        0.1149
     14 C         142.3232  138.4567  158.6690 C.ar    1  UNL1        0.1350
     15 C         141.4046  139.2683  157.8047 C.ar    1  UNL1        0.0550
     16 C         141.1609  138.8628  156.3812 C.ar    1  UNL1        0.1034
     17 N         141.8359  137.6455  155.8222 N.ar    1  UNL1       -0.2217
     18 C         142.7546  136.8338  156.6865 C.ar    1  UNL1        0.2363
     19 N         142.9983  137.2393  158.1100 N.ar    1  UNL1       -0.2084
     20 C         143.4296  135.6165  156.1274 C.3     1  UNL1        0.4523
     21 F         144.1046  134.3992  155.5683 F       1  UNL1       -0.1632
     22 F         142.6942  134.7565  157.1121 F       1  UNL1       -0.1632
     23 F         144.1650  136.4765  155.1428 F       1  UNL1       -0.1632
     24 C         142.5639  138.5836  165.4831 C.3     1  UNL1        0.0082
     25 C         143.7292  138.1894  166.3415 C.3     1  UNL1        0.0005
     26 C         142.2099  137.7465  165.1054 C.3     1  UNL1        0.0005
     27 N         140.3960  143.4440  165.8275 N.3     1  UNL1       -0.2975
     28 H         139.6978  143.5196  166.5672 H       1  UNL1        0.1232
     29 C         140.5760  144.8830  163.6718 C.3     1  UNL1        0.1591
     30 C         139.9520  145.4438  162.4284 C.3     1  UNL1        0.1729
     31 O         138.5239  145.1263  162.0972 O.3     1  UNL1       -0.3511
     32 C         137.7198  144.2480  163.0094 C.3     1  UNL1        0.1437
     33 C         138.3439  143.6873  164.2528 C.3     1  UNL1        0.0503
     34 C         139.7720  144.0048  164.5840 C.3     1  UNL1        0.0865
     35 C         143.1041  144.7512  163.0876 C.3     1  UNL1        0.1742
     36 O         142.0041  145.2005  164.0030 O.3     1  UNL1       -0.3496
@<TRIPOS>BOND
     1    35    36    1
     2    29    36    1
     3    29    30    1
     4    30    31    1
     5    31    32    1
     6    32    33    1
     7    33    34    1
     8    34    27    1
     9     1    27    1
    10     1     2    1
    11     2     3    1
    12     3     4    1
    13     4     6    1
    14     6     7    2
    15     6     8   am
    16     8     9    1
    17     9    10    1
    18    10    11    1
    19    11    14    1
    20    14    15   ar
    21    15    16   ar
    22    16    17   ar
    23    17    18   ar
    24    18    20    1
    25    20    21    1
    26    20    22    1
    27    20    23    1
    28    18    19   ar
    29    11    12    1
    30    12    13    1
    31     4    24    1
    32    24    25    1
    33    24    26    1
    34     4     5    1
    35    34    29    1
    36     5     1    1
    37    13     8    1
    38    19    14   ar
    39    27    28    1
@<TRIPOS>MOLECULE
*****
 36 39 0 0 0
SMALL
GASTEIGER

@<TRIPOS>ATOM
      1 C         140.6514  141.5576  164.7867 C.3     1  UNL1        0.0545
      2 C         141.5218  141.2645  165.9726 C.3     1  UNL1        0.0162
      3 C         142.8954  141.7921  165.6812 C.3     1  UNL1        0.0100
      4 C         142.8740  142.4112  164.3151 C.3     1  UNL1        0.0704
      5 C         141.4871  142.2663  163.7623 C.3     1  UNL1        0.0243
      6 C         143.1546  143.0904  163.0075 C.2     1  UNL1        0.2248
      7 O         143.3069  144.5817  162.9543 O.2     1  UNL1       -0.2749
      8 N         143.2830  142.2782  161.7529 N.am    1  UNL1       -0.2760
      9 C         143.1308  140.7869  161.8061 C.3     1  UNL1        0.1149
     10 C         143.2592  139.9746  160.5516 C.3     1  UNL1        0.1137
     11 N         143.5398  140.6537  159.2439 N.pl3   1  UNL1       -0.2897
     12 C         143.6921  142.1450  159.1907 C.3     1  UNL1        0.1137
     13 C         143.5637  142.9572  160.4452 C.3     1  UNL1        0.1149
     14 C         143.6682  139.8415  157.9894 C.ar    1  UNL1        0.1350
     15 C         144.3439  140.4248  156.7840 C.ar    1  UNL1        0.0550
     16 C         144.4723  139.6126  155.5295 C.ar    1  UNL1        0.1034
     17 N         143.9249  138.2169  155.4805 N.ar    1  UNL1       -0.2217
     18 C         143.2492  137.6335  156.6859 C.ar    1  UNL1        0.2363
     19 N         143.1208  138.4457  157.9404 N.ar    1  UNL1       -0.2084
     20 C         142.7019  136.2378  156.6367 C.3     1  UNL1        0.4523
     21 F         142.1545  134.8421  156.5876 F       1  UNL1       -0.1632
     22 F         141.3237  136.7690  156.8983 F       1  UNL1       -0.1632
     23 F         144.0800  135.7065  156.3752 F       1  UNL1       -0.1632
     24 C         144.3194  142.6981  164.5946 C.3     1  UNL1        0.0082
     25 C         144.6955  143.7370  165.6091 C.3     1  UNL1        0.0005
     26 C         145.1674  142.3408  164.2453 C.3     1  UNL1        0.0005
     27 N         139.2002  141.2041  164.6493 N.3     1  UNL1       -0.2975
     28 H         138.8793  140.9129  165.5727 H       1  UNL1        0.1232
     29 C         137.8547  140.4692  162.5517 C.3     1  UNL1        0.1591
     30 C         137.4313  139.3996  161.5891 C.3     1  UNL1        0.1729
     31 O         137.9298  137.9954  161.7613 O.3     1  UNL1       -0.3511
     32 C         138.8518  137.6608  162.8961 C.3     1  UNL1        0.1437
     33 C         139.2752  138.7303  163.8588 C.3     1  UNL1        0.0503
     34 C         138.7767  140.1345  163.6866 C.3     1  UNL1        0.0865
     35 C         138.1719  142.8698  161.6104 C.3     1  UNL1        0.1742
     36 O         137.3562  141.8734  162.3795 O.3     1  UNL1       -0.3496
@<TRIPOS>BOND
     1    35    36    1
     2    29    36    1
     3    29    30    1
     4    30    31    1
     5    31    32    1
     6    32    33    1
     7    33    34    1
     8    34    27    1
     9     1    27    1
    10     1     2    1
    11     2     3    1
    12     3     4    1
    13     4     6    1
    14     6     7    2
    15     6     8   am
    16     8     9    1
    17     9    10    1
    18    10    11    1
    19    11    14    1
    20    14    15   ar
    21    15    16   ar
    22    16    17   ar
    23    17    18   ar
    24    18    20    1
    25    20    21    1
    26    20    22    1
    27    20    23    1
    28    18    19   ar
    29    11    12    1
    30    12    13    1
    31     4    24    1
    32    24    25    1
    33    24    26    1
    34     4     5    1
    35    34    29    1
    36     5     1    1
    37    13     8    1
    38    19    14   ar
    39    27    28    1
@<TRIPOS>MOLECULE
*****
 36 39 0 0 0
SMALL
GASTEIGER

@<TRIPOS>ATOM
      1 C         138.4661  142.4717  164.3699 C.3     1  UNL1        0.0545
      2 C         137.9971  143.8808  164.1591 C.3     1  UNL1        0.0162
      3 C         139.1876  144.7154  163.7900 C.3     1  UNL1        0.0100
      4 C         140.3924  143.8221  163.7727 C.3     1  UNL1        0.0704
      5 C         139.9465  142.4354  164.1310 C.3     1  UNL1        0.0243
      6 C         141.7498  143.1910  163.6763 C.2     1  UNL1        0.2248
      7 O         142.6976  143.2696  164.8362 O.2     1  UNL1       -0.2749
      8 N         142.1594  142.4814  162.4198 N.am    1  UNL1       -0.2760
      9 C         141.2116  142.4028  161.2599 C.3     1  UNL1        0.1149
     10 C         141.6211  141.6931  160.0034 C.3     1  UNL1        0.1137
     11 N         142.9784  141.0620  159.9069 N.pl3   1  UNL1       -0.2897
     12 C         143.9262  141.1406  161.0668 C.3     1  UNL1        0.1137
     13 C         143.5167  141.8503  162.3233 C.3     1  UNL1        0.1149
     14 C         143.3879  140.3524  158.6504 C.ar    1  UNL1        0.1350
     15 C         144.3731  140.9898  157.7161 C.ar    1  UNL1        0.0550
     16 C         144.7826  140.2801  156.4596 C.ar    1  UNL1        0.1034
     17 N         144.2069  138.9330  156.1376 N.ar    1  UNL1       -0.2217
     18 C         143.2217  138.2955  157.0719 C.ar    1  UNL1        0.2363
     19 N         142.8122  139.0052  158.3284 N.ar    1  UNL1       -0.2084
     20 C         142.6460  136.9484  156.7498 C.3     1  UNL1        0.4523
     21 F         142.0704  135.6012  156.4277 F       1  UNL1       -0.1632
     22 F         141.4050  137.2950  157.5177 F       1  UNL1       -0.1632
     23 F         143.8870  136.6017  155.9818 F       1  UNL1       -0.1632
     24 C         141.1220  145.0768  163.3942 C.3     1  UNL1        0.0082
     25 C         140.6323  145.9129  162.2492 C.3     1  UNL1        0.0005
     26 C         141.9204  145.5350  163.7426 C.3     1  UNL1        0.0005
     27 N         137.6058  141.3040  164.7523 N.3     1  UNL1       -0.2975
     28 H         137.4713  141.3555  165.7620 H       1  UNL1        0.1232
     29 C         138.1329  139.4371  163.0240 C.3     1  UNL1        0.1591
     30 C         138.5856  138.0401  162.7183 C.3     1  UNL1        0.1729
     31 O         138.9639  137.1130  163.8351 O.3     1  UNL1       -0.3511
     32 C         138.8895  137.5829  165.2577 C.3     1  UNL1        0.1437
     33 C         138.4368  138.9798  165.5634 C.3     1  UNL1        0.0503
     34 C         138.0585  139.9069  164.4465 C.3     1  UNL1        0.0865
     35 C         137.4625  139.8145  160.5424 C.3     1  UNL1        0.1742
     36 O         137.7546  140.3642  161.9071 O.3     1  UNL1       -0.3496
@<TRIPOS>BOND
     1    35    36    1
     2    29    36    1
     3    29    30    1
     4    30    31    1
     5    31    32    1
     6    32    33    1
     7    33    34    1
     8    34    27    1
     9     1    27    1
    10     1     2    1
    11     2     3    1
    12     3     4    1
    13     4     6    1
    14     6     7    2
    15     6     8   am
    16     8     9    1
    17     9    10    1
    18    10    11    1
    19    11    14    1
    20    14    15   ar
    21    15    16   ar
    22    16    17   ar
    23    17    18   ar
    24    18    20    1
    25    20    21    1
    26    20    22    1
    27    20    23    1
    28    18    19   ar
    29    11    12    1
    30    12    13    1
    31     4    24    1
    32    24    25    1
    33    24    26    1
    34     4     5    1
    35    34    29    1
    36     5     1    1
    37    13     8    1
    38    19    14   ar
    39    27    28    1
@<TRIPOS>MOLECULE
*****
 36 39 0 0 0
SMALL
GASTEIGER

@<TRIPOS>ATOM
      1 C         141.6174  142.3887  164.9731 C.3     1  UNL1        0.0545
      2 C         142.4075  143.6384  164.7198 C.3     1  UNL1        0.0162
      3 C         143.6991  143.2457  164.0659 C.3     1  UNL1        0.0100
      4 C         143.7073  141.7533  163.9150 C.3     1  UNL1        0.0704
      5 C         142.4207  141.2237  164.4757 C.3     1  UNL1        0.0243
      6 C         143.9971  140.3085  163.6348 C.2     1  UNL1        0.2248
      7 O         144.7379  139.4826  164.6442 O.2     1  UNL1       -0.2749
      8 N         143.5460  139.6896  162.3450 N.am    1  UNL1       -0.2760
      9 C         142.8052  140.5156  161.3355 C.3     1  UNL1        0.1149
     10 C         142.3541  139.8967  160.0457 C.3     1  UNL1        0.1137
     11 N         142.6439  138.4520  159.7653 N.pl3   1  UNL1       -0.2897
     12 C         143.3847  137.6260  160.7748 C.3     1  UNL1        0.1137
     13 C         143.8357  138.2448  162.0646 C.3     1  UNL1        0.1149
     14 C         142.1928  137.8331  158.4755 C.ar    1  UNL1        0.1350
     15 C         140.9571  138.3394  157.7925 C.ar    1  UNL1        0.0550
     16 C         140.5061  137.7206  156.5027 C.ar    1  UNL1        0.1034
     17 N         141.2908  136.5954  155.8960 N.ar    1  UNL1       -0.2217
     18 C         142.5265  136.0891  156.5790 C.ar    1  UNL1        0.2363
     19 N         142.9776  136.7079  157.8688 N.ar    1  UNL1       -0.2084
     20 C         143.3112  134.9639  155.9722 C.3     1  UNL1        0.4523
     21 F         144.0959  133.8387  155.3654 F       1  UNL1       -0.1632
     22 F         144.4684  135.8917  155.7482 F       1  UNL1       -0.1632
     23 F         142.1540  134.0361  156.1962 F       1  UNL1       -0.1632
     24 C         145.0543  141.9809  163.2958 C.3     1  UNL1        0.0082
     25 C         145.1647  142.6963  161.9820 C.3     1  UNL1        0.0005
     26 C         145.9753  141.7568  163.5608 C.3     1  UNL1        0.0005
     27 N         140.2620  142.3167  165.6116 N.3     1  UNL1       -0.2975
     28 H         139.8324  143.2345  165.4949 H       1  UNL1        0.1232
     29 C         139.7382  140.5699  167.4621 C.3     1  UNL1        0.1591
     30 C         139.6110  140.2137  168.9136 C.3     1  UNL1        0.1729
     31 O         139.8802  141.2479  169.9661 O.3     1  UNL1       -0.3511
     32 C         140.2767  142.6385  169.5671 C.3     1  UNL1        0.1437
     33 C         140.4039  142.9947  168.1156 C.3     1  UNL1        0.0503
     34 C         140.1347  141.9604  167.0631 C.3     1  UNL1        0.0865
     35 C         138.0989  138.9399  166.2766 C.3     1  UNL1        0.1742
     36 O         139.4690  139.5356  166.4096 O.3     1  UNL1       -0.3496
@<TRIPOS>BOND
     1    35    36    1
     2    29    36    1
     3    29    30    1
     4    30    31    1
     5    31    32    1
     6    32    33    1
     7    33    34    1
     8    34    27    1
     9     1    27    1
    10     1     2    1
    11     2     3    1
    12     3     4    1
    13     4     6    1
    14     6     7    2
    15     6     8   am
    16     8     9    1
    17     9    10    1
    18    10    11    1
    19    11    14    1
    20    14    15   ar
    21    15    16   ar
    22    16    17   ar
    23    17    18   ar
    24    18    20    1
    25    20    21    1
    26    20    22    1
    27    20    23    1
    28    18    19   ar
    29    11    12    1
    30    12    13    1
    31     4    24    1
    32    24    25    1
    33    24    26    1
    34     4     5    1
    35    34    29    1
    36     5     1    1
    37    13     8    1
    38    19    14   ar
    39    27    28    1
