@<TRIPOS>MOLECULE
*****
 43 48 0 0 0
SMALL
GASTEIGER

@<TRIPOS>ATOM
      1 O         137.7346  143.8334  162.8561 O.2     1  UNL1       -0.2616
      2 C         138.9001  143.1865  162.1683 C.2     1  UNL1        0.2903
      3 S         139.3964  143.5030  160.7886 S.3     1  UNL1       -0.0248
      4 C         140.5770  142.6216  160.5070 C.2     1  UNL1        0.0879
      5 C         141.3826  142.6045  159.2418 C.2     1  UNL1        0.0112
      6 C         140.8104  141.7603  161.7127 C.2     1  UNL1        0.2653
      7 O         141.8905  140.7307  161.8649 O.2     1  UNL1       -0.2686
      8 N         139.7741  142.1094  162.7394 N.am    1  UNL1       -0.1954
      9 C         141.0286  143.5287  158.1146 C.ar    1  UNL1        0.0008
     10 C         139.8325  143.2410  157.2564 C.ar    1  UNL1        0.0031
     11 C         139.4785  144.1652  156.1293 C.ar    1  UNL1        0.0375
     12 C         140.3206  145.3771  155.8603 C.ar    1  UNL1        0.1453
     13 C         141.5167  145.6647  156.7185 C.ar    1  UNL1        0.0375
     14 C         141.8707  144.7405  157.8457 C.ar    1  UNL1        0.0031
     15 O         139.9665  146.3013  154.7331 O.3     1  UNL1       -0.4535
     16 C         139.5775  147.7210  155.0212 C.ar    1  UNL1        0.1454
     17 C         138.8079  148.0498  156.2661 C.ar    1  UNL1        0.0398
     18 C         138.4189  149.4696  156.5542 C.ar    1  UNL1        0.0328
     19 C         138.7994  150.5604  155.5975 C.ar    1  UNL1        0.1403
     20 F         138.4104  151.9801  155.8857 F       1  UNL1       -0.2042
     21 C         139.5690  150.2316  154.3527 C.ar    1  UNL1        0.0328
     22 C         139.9580  148.8119  154.0646 C.ar    1  UNL1        0.0398
     23 C         139.6360  141.4902  164.0986 C.ar    1  UNL1        0.0619
     24 C         139.2695  140.0416  164.2291 C.ar    1  UNL1        0.0185
     25 C         139.1314  139.4224  165.5883 C.ar    1  UNL1        0.0382
     26 C         139.3599  140.2519  166.8171 C.ar    1  UNL1        0.1386
     27 C         139.7264  141.7006  166.6866 C.ar    1  UNL1        0.0382
     28 C         139.8645  142.3198  165.3273 C.ar    1  UNL1        0.0185
     29 O         139.2218  139.6327  168.1764 O.3     1  UNL1       -0.4755
     30 C         139.2583  140.4973  169.4016 C.3     1  UNL1        0.2054
     31 C         140.0891  140.0902  170.5822 C.3     1  UNL1        0.0488
     32 C         141.5458  140.4445  170.6321 C.3     1  UNL1        0.0212
     33 C         142.5100  139.7887  169.6886 C.3     1  UNL1        0.0723
     34 N         142.7822  140.4029  168.3474 N.3     1  UNL1       -0.2703
     35 C         143.0355  141.8771  168.2351 C.3     1  UNL1        0.0897
     36 C         143.3077  142.4913  166.8939 C.3     1  UNL1        0.0897
     37 N         143.3266  141.6312  165.6651 N.3     1  UNL1       -0.2703
     38 C         143.0733  140.1571  165.7773 C.3     1  UNL1        0.0897
     39 C         142.8011  139.5429  167.1185 C.3     1  UNL1        0.0897
     40 C         143.5987  142.2454  164.3240 C.3     1  UNL1        0.0721
     41 C         143.2293  143.6761  164.0654 C.3     1  UNL1        0.0160
     42 C         142.1832  144.7398  163.9093 C.3     1  UNL1        0.0014
     43 C         143.6353  145.0902  163.7736 C.3     1  UNL1        0.0014
@<TRIPOS>BOND
     1     1     2    2
     2     2     3    1
     3     3     4    1
     4     4     5    2
     5     5     9    1
     6     9    10   ar
     7    10    11   ar
     8    11    12   ar
     9    12    15    1
    10    15    16    1
    11    16    17   ar
    12    17    18   ar
    13    18    19   ar
    14    19    20    1
    15    19    21   ar
    16    21    22   ar
    17    12    13   ar
    18    13    14   ar
    19     4     6    1
    20     6     7    2
    21     6     8   am
    22     8    23    1
    23    23    24   ar
    24    24    25   ar
    25    25    26   ar
    26    26    29    1
    27    29    30    1
    28    30    31    1
    29    31    32    1
    30    32    33    1
    31    33    34    1
    32    34    35    1
    33    35    36    1
    34    36    37    1
    35    37    40    1
    36    40    41    1
    37    41    42    1
    38    42    43    1
    39    37    38    1
    40    38    39    1
    41    26    27   ar
    42    27    28   ar
    43     8     2   am
    44    28    23   ar
    45    14     9   ar
    46    39    34    1
    47    22    16   ar
    48    43    41    1
@<TRIPOS>MOLECULE
*****
 43 48 0 0 0
SMALL
GASTEIGER

@<TRIPOS>ATOM
      1 O         141.1010  136.8651  163.3107 O.2     1  UNL1       -0.2616
      2 C         140.5226  138.0515  162.5980 C.2     1  UNL1        0.2903
      3 S         140.6295  138.3359  161.1291 S.3     1  UNL1       -0.0248
      4 C         139.9086  139.6219  160.8523 C.2     1  UNL1        0.0879
      5 C         139.7653  140.2817  159.5128 C.2     1  UNL1        0.0112
      6 C         139.3562  140.1322  162.1501 C.2     1  UNL1        0.2653
      7 O         138.5635  141.3920  162.3364 O.2     1  UNL1       -0.2686
      8 N         139.7357  139.1617  163.2291 N.am    1  UNL1       -0.1954
      9 C         140.3752  139.6500  158.2966 C.ar    1  UNL1        0.0008
     10 C         139.6004  138.6343  157.5105 C.ar    1  UNL1        0.0031
     11 C         140.2103  138.0028  156.2943 C.ar    1  UNL1        0.0375
     12 C         141.5950  138.3869  155.8642 C.ar    1  UNL1        0.1453
     13 C         142.3698  139.4026  156.6503 C.ar    1  UNL1        0.0375
     14 C         141.7600  140.0342  157.8665 C.ar    1  UNL1        0.0031
     15 O         142.2049  137.7553  154.6480 O.3     1  UNL1       -0.4535
     16 C         142.4621  136.2778  154.6193 C.ar    1  UNL1        0.1454
     17 C         143.3994  135.6602  155.6143 C.ar    1  UNL1        0.0398
     18 C         143.6566  134.1827  155.5855 C.ar    1  UNL1        0.0328
     19 C         142.9766  133.3228  154.5618 C.ar    1  UNL1        0.1403
     20 F         143.2338  131.8453  154.5330 F       1  UNL1       -0.2042
     21 C         142.0393  133.9404  153.5667 C.ar    1  UNL1        0.0328
     22 C         141.7821  135.4179  153.5955 C.ar    1  UNL1        0.0398
     23 C         139.3890  139.2805  164.6836 C.ar    1  UNL1        0.0619
     24 C         139.9322  140.4203  165.4933 C.ar    1  UNL1        0.0185
     25 C         139.5855  140.5391  166.9479 C.ar    1  UNL1        0.0382
     26 C         138.6957  139.5181  167.5926 C.ar    1  UNL1        0.1386
     27 C         138.1525  138.3782  166.7828 C.ar    1  UNL1        0.0382
     28 C         138.4992  138.2594  165.3283 C.ar    1  UNL1        0.0185
     29 O         138.3490  139.6368  169.0473 O.3     1  UNL1       -0.4755
     30 C         139.1643  140.5220  169.9427 C.3     1  UNL1        0.2054
     31 C         140.3159  139.9506  170.7154 C.3     1  UNL1        0.0488
     32 C         141.5553  139.5073  169.9961 C.3     1  UNL1        0.0212
     33 C         142.4429  140.5210  169.3368 C.3     1  UNL1        0.0723
     34 N         142.8037  140.3729  167.8884 N.3     1  UNL1       -0.2703
     35 C         142.9939  141.5913  167.0345 C.3     1  UNL1        0.0897
     36 C         143.3547  141.4432  165.5860 C.3     1  UNL1        0.0897
     37 N         143.5252  140.0766  164.9915 N.3     1  UNL1       -0.2703
     38 C         143.3349  138.8581  165.8454 C.3     1  UNL1        0.0897
     39 C         142.9742  139.0062  167.2939 C.3     1  UNL1        0.0897
     40 C         143.8859  139.9285  163.5432 C.3     1  UNL1        0.0721
     41 C         143.6246  141.0538  162.5863 C.3     1  UNL1        0.0160
     42 C         144.1313  142.1867  161.7439 C.3     1  UNL1        0.0014
     43 C         142.6654  141.8698  161.7715 C.3     1  UNL1        0.0014
@<TRIPOS>BOND
     1     1     2    2
     2     2     3    1
     3     3     4    1
     4     4     5    2
     5     5     9    1
     6     9    10   ar
     7    10    11   ar
     8    11    12   ar
     9    12    15    1
    10    15    16    1
    11    16    17   ar
    12    17    18   ar
    13    18    19   ar
    14    19    20    1
    15    19    21   ar
    16    21    22   ar
    17    12    13   ar
    18    13    14   ar
    19     4     6    1
    20     6     7    2
    21     6     8   am
    22     8    23    1
    23    23    24   ar
    24    24    25   ar
    25    25    26   ar
    26    26    29    1
    27    29    30    1
    28    30    31    1
    29    31    32    1
    30    32    33    1
    31    33    34    1
    32    34    35    1
    33    35    36    1
    34    36    37    1
    35    37    40    1
    36    40    41    1
    37    41    42    1
    38    42    43    1
    39    37    38    1
    40    38    39    1
    41    26    27   ar
    42    27    28   ar
    43     8     2   am
    44    28    23   ar
    45    14     9   ar
    46    39    34    1
    47    22    16   ar
    48    43    41    1
@<TRIPOS>MOLECULE
*****
 43 48 0 0 0
SMALL
GASTEIGER

@<TRIPOS>ATOM
      1 O         145.9382  141.5726  163.2052 O.2     1  UNL1       -0.2616
      2 C         144.6298  141.2504  162.5463 C.2     1  UNL1        0.2903
      3 S         144.3593  141.2612  161.0710 S.3     1  UNL1       -0.0248
      4 C         142.9244  140.8784  160.8599 C.2     1  UNL1        0.0879
      5 C         142.2282  140.7631  159.5363 C.2     1  UNL1        0.0112
      6 C         142.3081  140.6310  162.2048 C.2     1  UNL1        0.2653
      7 O         140.8873  140.2249  162.4623 O.2     1  UNL1       -0.2686
      8 N         143.3620  140.8609  163.2471 N.am    1  UNL1       -0.1954
      9 C         142.9780  141.0429  158.2675 C.ar    1  UNL1        0.0008
     10 C         143.0924  142.4492  157.7585 C.ar    1  UNL1        0.0031
     11 C         143.8422  142.7289  156.4899 C.ar    1  UNL1        0.0375
     12 C         144.4775  141.6023  155.7302 C.ar    1  UNL1        0.1453
     13 C         144.3631  140.1960  156.2392 C.ar    1  UNL1        0.0375
     14 C         143.6133  139.9163  157.5079 C.ar    1  UNL1        0.0031
     15 O         145.2273  141.8820  154.4615 O.3     1  UNL1       -0.4535
     16 C         146.7266  141.8367  154.4508 C.ar    1  UNL1        0.1454
     17 C         147.4644  141.7278  153.1493 C.ar    1  UNL1        0.0398
     18 C         148.9637  141.6824  153.1386 C.ar    1  UNL1        0.0328
     19 C         149.7251  141.7459  154.4294 C.ar    1  UNL1        0.1403
     20 F         151.2244  141.7005  154.4187 F       1  UNL1       -0.2042
     21 C         148.9874  141.8547  155.7309 C.ar    1  UNL1        0.0328
     22 C         147.4881  141.9001  155.7416 C.ar    1  UNL1        0.0398
     23 C         143.1802  140.7251  164.7298 C.ar    1  UNL1        0.0619
     24 C         143.1117  141.9504  165.5923 C.ar    1  UNL1        0.0185
     25 C         142.9298  141.8146  167.0751 C.ar    1  UNL1        0.0382
     26 C         142.8164  140.4536  167.6952 C.ar    1  UNL1        0.1386
     27 C         142.8848  139.2283  166.8327 C.ar    1  UNL1        0.0382
     28 C         143.0667  139.3640  165.3499 C.ar    1  UNL1        0.0185
     29 O         142.6345  140.3177  169.1780 O.3     1  UNL1       -0.4755
     30 C         141.2839  139.9870  169.7408 C.3     1  UNL1        0.2054
     31 C         140.0696  140.7234  169.2582 C.3     1  UNL1        0.0488
     32 C         139.0265  140.0045  168.4549 C.3     1  UNL1        0.0212
     33 C         139.3464  139.5215  167.0713 C.3     1  UNL1        0.0723
     34 N         138.9904  140.3634  165.8820 N.3     1  UNL1       -0.2703
     35 C         138.1383  139.7928  164.7872 C.3     1  UNL1        0.0897
     36 C         137.7823  140.6347  163.5979 C.3     1  UNL1        0.0897
     37 N         138.2784  142.0472  163.5033 N.3     1  UNL1       -0.2703
     38 C         139.1304  142.6178  164.5981 C.3     1  UNL1        0.0897
     39 C         139.4864  141.7759  165.7874 C.3     1  UNL1        0.0897
     40 C         137.9223  142.8891  162.3141 C.3     1  UNL1        0.0721
     41 C         138.3702  142.4776  160.9428 C.3     1  UNL1        0.0160
     42 C         138.5507  141.4150  159.8996 C.3     1  UNL1        0.0014
     43 C         138.9654  142.8274  159.6112 C.3     1  UNL1        0.0014
@<TRIPOS>BOND
     1     1     2    2
     2     2     3    1
     3     3     4    1
     4     4     5    2
     5     5     9    1
     6     9    10   ar
     7    10    11   ar
     8    11    12   ar
     9    12    15    1
    10    15    16    1
    11    16    17   ar
    12    17    18   ar
    13    18    19   ar
    14    19    20    1
    15    19    21   ar
    16    21    22   ar
    17    12    13   ar
    18    13    14   ar
    19     4     6    1
    20     6     7    2
    21     6     8   am
    22     8    23    1
    23    23    24   ar
    24    24    25   ar
    25    25    26   ar
    26    26    29    1
    27    29    30    1
    28    30    31    1
    29    31    32    1
    30    32    33    1
    31    33    34    1
    32    34    35    1
    33    35    36    1
    34    36    37    1
    35    37    40    1
    36    40    41    1
    37    41    42    1
    38    42    43    1
    39    37    38    1
    40    38    39    1
    41    26    27   ar
    42    27    28   ar
    43     8     2   am
    44    28    23   ar
    45    14     9   ar
    46    39    34    1
    47    22    16   ar
    48    43    41    1
@<TRIPOS>MOLECULE
*****
 43 48 0 0 0
SMALL
GASTEIGER

@<TRIPOS>ATOM
      1 O         138.2729  143.2566  160.7373 O.2     1  UNL1       -0.2616
      2 C         138.6777  141.8198  160.8843 C.2     1  UNL1        0.2903
      3 S         138.9291  141.1024  162.1775 S.3     1  UNL1       -0.0248
      4 C         139.3090  139.6873  161.8564 C.2     1  UNL1        0.0879
      5 C         139.6462  138.6173  162.8520 C.2     1  UNL1        0.0112
      6 C         139.2923  139.5300  160.3647 C.2     1  UNL1        0.2653
      7 O         139.6100  138.2752  159.6069 O.2     1  UNL1       -0.2686
      8 N         138.9022  140.8479  159.7640 N.am    1  UNL1       -0.1954
      9 C         139.6205  138.9240  164.3202 C.ar    1  UNL1        0.0008
     10 C         138.3608  138.7166  165.1077 C.ar    1  UNL1        0.0031
     11 C         138.3351  139.0233  166.5757 C.ar    1  UNL1        0.0375
     12 C         139.5691  139.5373  167.2563 C.ar    1  UNL1        0.1453
     13 C         140.8287  139.7446  166.4688 C.ar    1  UNL1        0.0375
     14 C         140.8544  139.4380  165.0008 C.ar    1  UNL1        0.0031
     15 O         139.5433  139.8440  168.7245 O.3     1  UNL1       -0.4535
     16 C         140.5137  140.8315  169.3015 C.ar    1  UNL1        0.1454
     17 C         141.8105  140.3552  169.8855 C.ar    1  UNL1        0.0398
     18 C         142.7809  141.3428  170.4626 C.ar    1  UNL1        0.0328
     19 C         142.4544  142.8068  170.4556 C.ar    1  UNL1        0.1403
     20 F         143.4248  143.7944  171.0326 F       1  UNL1       -0.2042
     21 C         141.1575  143.2832  169.8715 C.ar    1  UNL1        0.0328
     22 C         140.1871  142.2956  169.2945 C.ar    1  UNL1        0.0398
     23 C         138.7612  141.1423  158.2999 C.ar    1  UNL1        0.0619
     24 C         139.9840  141.3141  157.4484 C.ar    1  UNL1        0.0185
     25 C         139.8431  141.6085  155.9843 C.ar    1  UNL1        0.0382
     26 C         138.4793  141.7311  155.3719 C.ar    1  UNL1        0.1386
     27 C         137.2565  141.5593  156.2234 C.ar    1  UNL1        0.0382
     28 C         137.3974  141.2649  157.6875 C.ar    1  UNL1        0.0185
     29 O         138.3383  142.0255  153.9077 O.3     1  UNL1       -0.4755
     30 C         139.2649  143.0024  153.2465 C.3     1  UNL1        0.2054
     31 C         139.4156  144.3873  153.8025 C.3     1  UNL1        0.0488
     32 C         140.7143  144.8088  154.4237 C.3     1  UNL1        0.0212
     33 C         140.7171  145.7614  155.5824 C.3     1  UNL1        0.0723
     34 N         141.1388  145.2877  156.9418 N.3     1  UNL1       -0.2703
     35 C         142.2961  144.3437  157.0815 C.3     1  UNL1        0.0897
     36 C         142.7177  143.8700  158.4408 C.3     1  UNL1        0.0897
     37 N         141.9820  144.3403  159.6606 N.3     1  UNL1       -0.2703
     38 C         140.8247  145.2843  159.5209 C.3     1  UNL1        0.0897
     39 C         140.4030  145.7580  158.1615 C.3     1  UNL1        0.0897
     40 C         142.4036  143.8666  161.0198 C.3     1  UNL1        0.0721
     41 C         141.7547  144.4353  162.2469 C.3     1  UNL1        0.0160
     42 C         141.8045  145.3414  163.4413 C.3     1  UNL1        0.0014
     43 C         140.5813  144.5143  163.1778 C.3     1  UNL1        0.0014
@<TRIPOS>BOND
     1     1     2    2
     2     2     3    1
     3     3     4    1
     4     4     5    2
     5     5     9    1
     6     9    10   ar
     7    10    11   ar
     8    11    12   ar
     9    12    15    1
    10    15    16    1
    11    16    17   ar
    12    17    18   ar
    13    18    19   ar
    14    19    20    1
    15    19    21   ar
    16    21    22   ar
    17    12    13   ar
    18    13    14   ar
    19     4     6    1
    20     6     7    2
    21     6     8   am
    22     8    23    1
    23    23    24   ar
    24    24    25   ar
    25    25    26   ar
    26    26    29    1
    27    29    30    1
    28    30    31    1
    29    31    32    1
    30    32    33    1
    31    33    34    1
    32    34    35    1
    33    35    36    1
    34    36    37    1
    35    37    40    1
    36    40    41    1
    37    41    42    1
    38    42    43    1
    39    37    38    1
    40    38    39    1
    41    26    27   ar
    42    27    28   ar
    43     8     2   am
    44    28    23   ar
    45    14     9   ar
    46    39    34    1
    47    22    16   ar
    48    43    41    1
@<TRIPOS>MOLECULE
*****
 43 48 0 0 0
SMALL
GASTEIGER

@<TRIPOS>ATOM
      1 O         138.6105  139.2650  157.6902 O.2     1  UNL1       -0.2616
      2 C         140.0367  138.8043  157.7524 C.2     1  UNL1        0.2903
      3 S         140.6314  137.6692  156.9727 S.3     1  UNL1       -0.0248
      4 C         142.0808  137.5612  157.3436 C.2     1  UNL1        0.0879
      5 C         143.0575  136.5605  156.8010 C.2     1  UNL1        0.0112
      6 C         142.3818  138.6295  158.3525 C.2     1  UNL1        0.2653
      7 O         143.7126  138.8848  158.9959 O.2     1  UNL1       -0.2686
      8 N         141.1186  139.3979  158.6052 N.am    1  UNL1       -0.1954
      9 C         142.6090  135.5460  155.7911 C.ar    1  UNL1        0.0008
     10 C         142.5388  135.9140  154.3386 C.ar    1  UNL1        0.0031
     11 C         142.0902  134.8996  153.3288 C.ar    1  UNL1        0.0375
     12 C         141.7118  133.5173  153.7714 C.ar    1  UNL1        0.1453
     13 C         141.7820  133.1493  155.2239 C.ar    1  UNL1        0.0375
     14 C         142.2305  134.1637  156.2337 C.ar    1  UNL1        0.0031
     15 O         141.2632  132.5029  152.7615 O.3     1  UNL1       -0.4535
     16 C         141.2239  131.0484  153.1260 C.ar    1  UNL1        0.1454
     17 C         142.4608  130.2094  152.9983 C.ar    1  UNL1        0.0398
     18 C         142.4213  128.7549  153.3627 C.ar    1  UNL1        0.0328
     19 C         141.1451  128.1393  153.8549 C.ar    1  UNL1        0.1403
     20 F         141.1058  126.6849  154.2194 F       1  UNL1       -0.2042
     21 C         139.9082  128.9783  153.9827 C.ar    1  UNL1        0.0328
     22 C         139.9476  130.4328  153.6182 C.ar    1  UNL1        0.0398
     23 C         140.9643  140.5563  159.5455 C.ar    1  UNL1        0.0619
     24 C         140.1504  140.4039  160.7961 C.ar    1  UNL1        0.0185
     25 C         139.9961  141.5623  161.7364 C.ar    1  UNL1        0.0382
     26 C         140.6557  142.8732  161.4260 C.ar    1  UNL1        0.1386
     27 C         141.4696  143.0257  160.1752 C.ar    1  UNL1        0.0382
     28 C         141.6239  141.8672  159.2349 C.ar    1  UNL1        0.0185
     29 O         140.5015  144.0318  162.3663 O.3     1  UNL1       -0.4755
     30 C         141.5949  145.0517  162.4854 C.3     1  UNL1        0.2054
     31 C         142.2906  145.2554  163.7986 C.3     1  UNL1        0.0488
     32 C         143.6429  144.6501  164.0327 C.3     1  UNL1        0.0212
     33 C         144.1315  143.5411  163.1486 C.3     1  UNL1        0.0723
     34 N         143.5615  142.1610  163.2923 N.3     1  UNL1       -0.2703
     35 C         143.8901  141.1047  162.2793 C.3     1  UNL1        0.0897
     36 C         143.3202  139.7247  162.4229 C.3     1  UNL1        0.0897
     37 N         142.4217  139.4009  163.5797 N.3     1  UNL1       -0.2703
     38 C         142.0931  140.4572  164.5927 C.3     1  UNL1        0.0897
     39 C         142.6631  141.8373  164.4491 C.3     1  UNL1        0.0897
     40 C         141.8518  138.0209  163.7233 C.3     1  UNL1        0.0721
     41 C         140.3720  137.8333  163.8823 C.3     1  UNL1        0.0160
     42 C         139.1708  137.6705  164.7658 C.3     1  UNL1        0.0014
     43 C         139.0104  137.6713  163.2744 C.3     1  UNL1        0.0014
@<TRIPOS>BOND
     1     1     2    2
     2     2     3    1
     3     3     4    1
     4     4     5    2
     5     5     9    1
     6     9    10   ar
     7    10    11   ar
     8    11    12   ar
     9    12    15    1
    10    15    16    1
    11    16    17   ar
    12    17    18   ar
    13    18    19   ar
    14    19    20    1
    15    19    21   ar
    16    21    22   ar
    17    12    13   ar
    18    13    14   ar
    19     4     6    1
    20     6     7    2
    21     6     8   am
    22     8    23    1
    23    23    24   ar
    24    24    25   ar
    25    25    26   ar
    26    26    29    1
    27    29    30    1
    28    30    31    1
    29    31    32    1
    30    32    33    1
    31    33    34    1
    32    34    35    1
    33    35    36    1
    34    36    37    1
    35    37    40    1
    36    40    41    1
    37    41    42    1
    38    42    43    1
    39    37    38    1
    40    38    39    1
    41    26    27   ar
    42    27    28   ar
    43     8     2   am
    44    28    23   ar
    45    14     9   ar
    46    39    34    1
    47    22    16   ar
    48    43    41    1
@<TRIPOS>MOLECULE
*****
 43 48 0 0 0
SMALL
GASTEIGER

@<TRIPOS>ATOM
      1 O         145.1099  142.4848  163.1478 O.2     1  UNL1       -0.2616
      2 C         143.7974  142.1853  162.4861 C.2     1  UNL1        0.2903
      3 S         143.5863  141.9257  161.0239 S.3     1  UNL1       -0.0248
      4 C         142.1241  141.6728  160.8044 C.2     1  UNL1        0.0879
      5 C         141.4694  141.3697  159.4893 C.2     1  UNL1        0.0112
      6 C         141.4316  141.7762  162.1310 C.2     1  UNL1        0.2653
      7 O         139.9629  141.5946  162.3753 O.2     1  UNL1       -0.2686
      8 N         142.4658  142.0929  163.1703 N.am    1  UNL1       -0.1954
      9 C         142.2953  141.2982  158.2391 C.ar    1  UNL1        0.0008
     10 C         142.4997  142.5273  157.4039 C.ar    1  UNL1        0.0031
     11 C         143.3256  142.4558  156.1539 C.ar    1  UNL1        0.0375
     12 C         143.9471  141.1552  155.7390 C.ar    1  UNL1        0.1453
     13 C         143.7428  139.9261  156.5742 C.ar    1  UNL1        0.0375
     14 C         142.9169  139.9976  157.8242 C.ar    1  UNL1        0.0031
     15 O         144.7731  141.0837  154.4888 O.3     1  UNL1       -0.4535
     16 C         146.2377  141.4038  154.5382 C.ar    1  UNL1        0.1454
     17 C         146.8961  141.7031  155.8523 C.ar    1  UNL1        0.0398
     18 C         148.3607  142.0232  155.9017 C.ar    1  UNL1        0.0328
     19 C         149.1669  142.0441  154.6369 C.ar    1  UNL1        0.1403
     20 F         150.6315  142.3642  154.6863 F       1  UNL1       -0.2042
     21 C         148.5085  141.7448  153.3228 C.ar    1  UNL1        0.0328
     22 C         147.0439  141.4247  153.2734 C.ar    1  UNL1        0.0398
     23 C         142.2127  142.2838  164.6364 C.ar    1  UNL1        0.0619
     24 C         143.2889  141.9641  165.6311 C.ar    1  UNL1        0.0185
     25 C         143.0358  142.1550  167.0972 C.ar    1  UNL1        0.0382
     26 C         141.7065  142.6655  167.5686 C.ar    1  UNL1        0.1386
     27 C         140.6302  142.9852  166.5738 C.ar    1  UNL1        0.0382
     28 C         140.8833  142.7943  165.1077 C.ar    1  UNL1        0.0185
     29 O         141.4533  142.8564  169.0348 O.3     1  UNL1       -0.4755
     30 C         140.9896  141.7016  169.8723 C.3     1  UNL1        0.2054
     31 C         139.7563  140.9413  169.4843 C.3     1  UNL1        0.0488
     32 C         139.8551  139.7892  168.5288 C.3     1  UNL1        0.0212
     33 C         138.9100  139.6943  167.3679 C.3     1  UNL1        0.0723
     34 N         139.4122  139.2495  166.0263 N.3     1  UNL1       -0.2703
     35 C         138.4408  138.9523  164.9226 C.3     1  UNL1        0.0897
     36 C         138.9430  138.5075  163.5810 C.3     1  UNL1        0.0897
     37 N         140.4167  138.3600  163.3430 N.3     1  UNL1       -0.2703
     38 C         141.3881  138.6572  164.4467 C.3     1  UNL1        0.0897
     39 C         140.8859  139.1020  165.7883 C.3     1  UNL1        0.0897
     40 C         140.9189  137.9152  162.0015 C.3     1  UNL1        0.0721
     41 C         142.3816  138.0045  161.6808 C.3     1  UNL1        0.0160
     42 C         143.7763  138.3919  162.0741 C.3     1  UNL1        0.0014
     43 C         143.5201  137.7720  160.7325 C.3     1  UNL1        0.0014
@<TRIPOS>BOND
     1     1     2    2
     2     2     3    1
     3     3     4    1
     4     4     5    2
     5     5     9    1
     6     9    10   ar
     7    10    11   ar
     8    11    12   ar
     9    12    15    1
    10    15    16    1
    11    16    17   ar
    12    17    18   ar
    13    18    19   ar
    14    19    20    1
    15    19    21   ar
    16    21    22   ar
    17    12    13   ar
    18    13    14   ar
    19     4     6    1
    20     6     7    2
    21     6     8   am
    22     8    23    1
    23    23    24   ar
    24    24    25   ar
    25    25    26   ar
    26    26    29    1
    27    29    30    1
    28    30    31    1
    29    31    32    1
    30    32    33    1
    31    33    34    1
    32    34    35    1
    33    35    36    1
    34    36    37    1
    35    37    40    1
    36    40    41    1
    37    41    42    1
    38    42    43    1
    39    37    38    1
    40    38    39    1
    41    26    27   ar
    42    27    28   ar
    43     8     2   am
    44    28    23   ar
    45    14     9   ar
    46    39    34    1
    47    22    16   ar
    48    43    41    1
@<TRIPOS>MOLECULE
*****
 43 48 0 0 0
SMALL
GASTEIGER

@<TRIPOS>ATOM
      1 O         143.4076  144.4491  162.0988 O.2     1  UNL1       -0.2616
      2 C         143.0664  143.0681  161.6228 C.2     1  UNL1        0.2903
      3 S         143.2038  142.5608  160.2179 S.3     1  UNL1       -0.0248
      4 C         142.7503  141.1311  160.1949 C.2     1  UNL1        0.0879
      5 C         142.7198  140.2351  158.9923 C.2     1  UNL1        0.0112
      6 C         142.3327  140.7549  161.5856 C.2     1  UNL1        0.2653
      7 O         141.8113  139.4166  162.0179 O.2     1  UNL1       -0.2686
      8 N         142.5281  141.9520  162.4681 N.am    1  UNL1       -0.1954
      9 C         143.1708  140.7536  157.6590 C.ar    1  UNL1        0.0008
     10 C         142.1661  141.2966  156.6865 C.ar    1  UNL1        0.0031
     11 C         142.6171  141.8151  155.3533 C.ar    1  UNL1        0.0375
     12 C         144.0728  141.7907  154.9924 C.ar    1  UNL1        0.1453
     13 C         145.0776  141.2477  155.9648 C.ar    1  UNL1        0.0375
     14 C         144.6266  140.7292  157.2981 C.ar    1  UNL1        0.0031
     15 O         144.5238  142.3093  153.6591 O.3     1  UNL1       -0.4535
     16 C         145.9335  142.7891  153.4787 C.ar    1  UNL1        0.1454
     17 C         146.2528  144.2481  153.6181 C.ar    1  UNL1        0.0398
     18 C         147.6625  144.7279  153.4378 C.ar    1  UNL1        0.0328
     19 C         148.7529  143.7487  153.1180 C.ar    1  UNL1        0.1403
     20 F         150.1626  144.2285  152.9377 F       1  UNL1       -0.2042
     21 C         148.4336  142.2897  152.9786 C.ar    1  UNL1        0.0328
     22 C         147.0240  141.8099  153.1590 C.ar    1  UNL1        0.0398
     23 C         142.2363  142.0209  163.9378 C.ar    1  UNL1        0.0619
     24 C         143.0828  141.2507  164.9074 C.ar    1  UNL1        0.0185
     25 C         142.7910  141.3195  166.3771 C.ar    1  UNL1        0.0382
     26 C         141.6528  142.1587  166.8772 C.ar    1  UNL1        0.1386
     27 C         140.8063  142.9290  165.9076 C.ar    1  UNL1        0.0382
     28 C         141.0980  142.8601  164.4379 C.ar    1  UNL1        0.0185
     29 O         141.3609  142.2277  168.3470 O.3     1  UNL1       -0.4755
     30 C         140.1230  141.5832  168.8969 C.3     1  UNL1        0.2054
     31 C         139.8415  140.1373  168.6144 C.3     1  UNL1        0.0488
     32 C         138.9848  139.7548  167.4440 C.3     1  UNL1        0.0212
     33 C         139.5748  138.9772  166.3050 C.3     1  UNL1        0.0723
     34 N         139.0274  139.1459  164.9187 N.3     1  UNL1       -0.2703
     35 C         138.3670  140.4337  164.5245 C.3     1  UNL1        0.0897
     36 C         137.8196  140.6023  163.1382 C.3     1  UNL1        0.0897
     37 N         137.9326  139.4830  162.1459 N.3     1  UNL1       -0.2703
     38 C         138.5930  138.1951  162.5401 C.3     1  UNL1        0.0897
     39 C         139.1404  138.0265  163.9264 C.3     1  UNL1        0.0897
     40 C         137.3852  139.6516  160.7597 C.3     1  UNL1        0.0721
     41 C         138.2780  140.1321  159.6541 C.3     1  UNL1        0.0160
     42 C         139.0878  141.2241  159.0202 C.3     1  UNL1        0.0014
     43 C         139.0143  139.8727  158.3734 C.3     1  UNL1        0.0014
@<TRIPOS>BOND
     1     1     2    2
     2     2     3    1
     3     3     4    1
     4     4     5    2
     5     5     9    1
     6     9    10   ar
     7    10    11   ar
     8    11    12   ar
     9    12    15    1
    10    15    16    1
    11    16    17   ar
    12    17    18   ar
    13    18    19   ar
    14    19    20    1
    15    19    21   ar
    16    21    22   ar
    17    12    13   ar
    18    13    14   ar
    19     4     6    1
    20     6     7    2
    21     6     8   am
    22     8    23    1
    23    23    24   ar
    24    24    25   ar
    25    25    26   ar
    26    26    29    1
    27    29    30    1
    28    30    31    1
    29    31    32    1
    30    32    33    1
    31    33    34    1
    32    34    35    1
    33    35    36    1
    34    36    37    1
    35    37    40    1
    36    40    41    1
    37    41    42    1
    38    42    43    1
    39    37    38    1
    40    38    39    1
    41    26    27   ar
    42    27    28   ar
    43     8     2   am
    44    28    23   ar
    45    14     9   ar
    46    39    34    1
    47    22    16   ar
    48    43    41    1
@<TRIPOS>MOLECULE
*****
 43 48 0 0 0
SMALL
GASTEIGER

@<TRIPOS>ATOM
      1 O         138.8478  139.3293  157.6911 O.2     1  UNL1       -0.2616
      2 C         140.3044  138.9912  157.5735 C.2     1  UNL1        0.2903
      3 S         140.8776  137.7897  156.8821 S.3     1  UNL1       -0.0248
      4 C         142.3710  137.8511  157.0078 C.2     1  UNL1        0.0879
      5 C         143.3439  136.8491  156.4605 C.2     1  UNL1        0.0112
      6 C         142.7209  139.0905  157.7769 C.2     1  UNL1        0.2653
      7 O         144.1049  139.5454  158.1338 O.2     1  UNL1       -0.2686
      8 N         141.4436  139.7951  158.1265 N.am    1  UNL1       -0.1954
      9 C         142.8436  135.6518  155.7079 C.ar    1  UNL1        0.0008
     10 C         142.5755  135.7498  154.2353 C.ar    1  UNL1        0.0031
     11 C         142.0753  134.5526  153.4828 C.ar    1  UNL1        0.0375
     12 C         141.8432  133.2573  154.2028 C.ar    1  UNL1        0.1453
     13 C         142.1113  133.1593  155.6753 C.ar    1  UNL1        0.0375
     14 C         142.6115  134.3565  156.4279 C.ar    1  UNL1        0.0031
     15 O         141.3430  132.0601  153.4501 O.3     1  UNL1       -0.4535
     16 C         141.1535  130.7528  154.1608 C.ar    1  UNL1        0.1454
     17 C         142.3296  129.8543  154.4045 C.ar    1  UNL1        0.0398
     18 C         142.1401  128.5469  155.1152 C.ar    1  UNL1        0.0328
     19 C         140.7746  128.1382  155.5822 C.ar    1  UNL1        0.1403
     20 F         140.5851  126.8309  156.2929 F       1  UNL1       -0.2042
     21 C         139.5984  129.0367  155.3385 C.ar    1  UNL1        0.0328
     22 C         139.7879  130.3440  154.6278 C.ar    1  UNL1        0.0398
     23 C         141.3263  141.0783  158.8944 C.ar    1  UNL1        0.0619
     24 C         142.1359  141.2836  160.1402 C.ar    1  UNL1        0.0185
     25 C         142.0186  142.5668  160.9080 C.ar    1  UNL1        0.0382
     26 C         141.0915  143.6447  160.4300 C.ar    1  UNL1        0.1386
     27 C         140.2817  143.4394  159.1841 C.ar    1  UNL1        0.0382
     28 C         140.3991  142.1562  158.4163 C.ar    1  UNL1        0.0185
     29 O         140.9740  144.9280  161.1978 O.3     1  UNL1       -0.4755
     30 C         140.4776  144.9123  162.6132 C.3     1  UNL1        0.2054
     31 C         139.0226  145.1369  162.9001 C.3     1  UNL1        0.0488
     32 C         138.1936  144.0308  163.4825 C.3     1  UNL1        0.0212
     33 C         137.7292  142.9024  162.6101 C.3     1  UNL1        0.0723
     34 N         138.5549  141.6556  162.4936 N.3     1  UNL1       -0.2703
     35 C         139.6534  141.3887  163.4795 C.3     1  UNL1        0.0897
     36 C         140.4792  140.1418  163.3630 C.3     1  UNL1        0.0897
     37 N         140.2064  139.1619  162.2605 N.3     1  UNL1       -0.2703
     38 C         139.1079  139.4288  161.2745 C.3     1  UNL1        0.0897
     39 C         138.2822  140.6756  161.3911 C.3     1  UNL1        0.0897
     40 C         141.0322  137.9152  162.1440 C.3     1  UNL1        0.0721
     41 C         142.5077  138.0136  161.8924 C.3     1  UNL1        0.0160
     42 C         143.8555  138.5569  162.2644 C.3     1  UNL1        0.0014
     43 C         143.7154  137.6410  161.0847 C.3     1  UNL1        0.0014
@<TRIPOS>BOND
     1     1     2    2
     2     2     3    1
     3     3     4    1
     4     4     5    2
     5     5     9    1
     6     9    10   ar
     7    10    11   ar
     8    11    12   ar
     9    12    15    1
    10    15    16    1
    11    16    17   ar
    12    17    18   ar
    13    18    19   ar
    14    19    20    1
    15    19    21   ar
    16    21    22   ar
    17    12    13   ar
    18    13    14   ar
    19     4     6    1
    20     6     7    2
    21     6     8   am
    22     8    23    1
    23    23    24   ar
    24    24    25   ar
    25    25    26   ar
    26    26    29    1
    27    29    30    1
    28    30    31    1
    29    31    32    1
    30    32    33    1
    31    33    34    1
    32    34    35    1
    33    35    36    1
    34    36    37    1
    35    37    40    1
    36    40    41    1
    37    41    42    1
    38    42    43    1
    39    37    38    1
    40    38    39    1
    41    26    27   ar
    42    27    28   ar
    43     8     2   am
    44    28    23   ar
    45    14     9   ar
    46    39    34    1
    47    22    16   ar
    48    43    41    1
@<TRIPOS>MOLECULE
*****
 43 48 0 0 0
SMALL
GASTEIGER

@<TRIPOS>ATOM
      1 O         141.9589  137.2031  162.1741 O.2     1  UNL1       -0.2616
      2 C         142.3862  138.0744  161.0303 C.2     1  UNL1        0.2903
      3 S         142.3941  137.6864  159.5814 S.3     1  UNL1       -0.0248
      4 C         142.8934  138.8588  158.7902 C.2     1  UNL1        0.0879
      5 C         143.0623  138.9097  157.3006 C.2     1  UNL1        0.0112
      6 C         143.1942  139.9715  159.7502 C.2     1  UNL1        0.2653
      7 O         143.7167  141.3304  159.3891 O.2     1  UNL1       -0.2686
      8 N         142.8807  139.4867  161.1346 N.am    1  UNL1       -0.1954
      9 C         142.7185  137.7120  156.4655 C.ar    1  UNL1        0.0008
     10 C         143.8106  136.8488  155.9066 C.ar    1  UNL1        0.0031
     11 C         143.4667  135.6512  155.0716 C.ar    1  UNL1        0.0375
     12 C         142.0308  135.3167  154.7954 C.ar    1  UNL1        0.1453
     13 C         140.9388  136.1798  155.3542 C.ar    1  UNL1        0.0375
     14 C         141.2826  137.3775  156.1893 C.ar    1  UNL1        0.0031
     15 O         141.6870  134.1190  153.9602 O.3     1  UNL1       -0.4535
     16 C         142.2266  132.7685  154.3277 C.ar    1  UNL1        0.1454
     17 C         142.0829  132.2601  155.7316 C.ar    1  UNL1        0.0398
     18 C         142.6226  130.9095  156.0990 C.ar    1  UNL1        0.0328
     19 C         143.3059  130.0676  155.0627 C.ar    1  UNL1        0.1403
     20 F         143.8455  128.7171  155.4301 F       1  UNL1       -0.2042
     21 C         143.4496  130.5760  153.6588 C.ar    1  UNL1        0.0328
     22 C         142.9100  131.9265  153.2913 C.ar    1  UNL1        0.0398
     23 C         143.0348  140.2757  162.4010 C.ar    1  UNL1        0.0619
     24 C         144.2545  140.0933  163.2546 C.ar    1  UNL1        0.0185
     25 C         144.4086  140.8823  164.5210 C.ar    1  UNL1        0.0382
     26 C         143.3427  141.8537  164.9337 C.ar    1  UNL1        0.1386
     27 C         142.1229  142.0361  164.0800 C.ar    1  UNL1        0.0382
     28 C         141.9689  141.2471  162.8137 C.ar    1  UNL1        0.0185
     29 O         143.4967  142.6428  166.2002 O.3     1  UNL1       -0.4755
     30 C         142.9099  142.1275  167.4809 C.3     1  UNL1        0.2054
     31 C         142.4956  140.6902  167.5911 C.3     1  UNL1        0.0488
     32 C         141.0475  140.3381  167.7623 C.3     1  UNL1        0.0212
     33 C         139.9985  141.0816  166.9898 C.3     1  UNL1        0.0723
     34 N         139.4569  140.5060  165.7149 N.3     1  UNL1       -0.2703
     35 C         139.9208  139.1598  165.2432 C.3     1  UNL1        0.0897
     36 C         139.3792  138.5842  163.9683 C.3     1  UNL1        0.0897
     37 N         138.3736  139.3549  163.1651 N.3     1  UNL1       -0.2703
     38 C         137.9097  140.7011  163.6368 C.3     1  UNL1        0.0897
     39 C         138.4513  141.2767  164.9117 C.3     1  UNL1        0.0897
     40 C         137.8320  138.7793  161.8903 C.3     1  UNL1        0.0721
     41 C         138.2177  139.3820  160.5719 C.3     1  UNL1        0.0160
     42 C         137.9465  140.3465  159.4555 C.3     1  UNL1        0.0014
     43 C         139.1566  139.4616  159.4049 C.3     1  UNL1        0.0014
@<TRIPOS>BOND
     1     1     2    2
     2     2     3    1
     3     3     4    1
     4     4     5    2
     5     5     9    1
     6     9    10   ar
     7    10    11   ar
     8    11    12   ar
     9    12    15    1
    10    15    16    1
    11    16    17   ar
    12    17    18   ar
    13    18    19   ar
    14    19    20    1
    15    19    21   ar
    16    21    22   ar
    17    12    13   ar
    18    13    14   ar
    19     4     6    1
    20     6     7    2
    21     6     8   am
    22     8    23    1
    23    23    24   ar
    24    24    25   ar
    25    25    26   ar
    26    26    29    1
    27    29    30    1
    28    30    31    1
    29    31    32    1
    30    32    33    1
    31    33    34    1
    32    34    35    1
    33    35    36    1
    34    36    37    1
    35    37    40    1
    36    40    41    1
    37    41    42    1
    38    42    43    1
    39    37    38    1
    40    38    39    1
    41    26    27   ar
    42    27    28   ar
    43     8     2   am
    44    28    23   ar
    45    14     9   ar
    46    39    34    1
    47    22    16   ar
    48    43    41    1
