@<TRIPOS>MOLECULE
*****
 38 42 0 0 0
SMALL
GASTEIGER

@<TRIPOS>ATOM
      1 C         139.2241  138.2606  165.1279 C.3     1  UNL1        0.0545
      2 C         138.2645  138.6296  166.2201 C.3     1  UNL1        0.0162
      3 C         139.0273  139.3746  167.2752 C.3     1  UNL1        0.0098
      4 C         138.9057  140.0631  168.6022 C.3     1  UNL1        0.0090
      5 C         140.2616  140.5800  168.9823 C.3     1  UNL1        0.0956
      6 C         141.2212  140.2110  167.8900 C.3     1  UNL1        0.0171
      7 C         140.4584  139.4660  166.8350 C.3     1  UNL1        0.0706
      8 C         140.5800  138.7775  165.5079 C.3     1  UNL1        0.0243
      9 C         141.8894  139.5574  166.3948 C.2     1  UNL1        0.2250
     10 O         142.8984  138.5772  166.9157 O.2     1  UNL1       -0.2749
     11 N         142.3115  140.6289  165.4337 N.am    1  UNL1       -0.2750
     12 C         143.7425  140.7203  164.9935 C.3     1  UNL1        0.1000
     13 C         144.1646  141.7918  164.0324 C.3     1  UNL1        0.0670
     14 C         143.1556  142.7719  163.5115 C.ar    1  UNL1        0.0583
     15 N         143.5777  143.8435  162.5504 N.ar    1  UNL1       -0.2484
     16 C         142.5687  144.8236  162.0295 C.ar    1  UNL1        0.1023
     17 C         141.1377  144.7322  162.4698 C.ar    1  UNL1        0.0902
     18 C         140.7156  143.6607  163.4308 C.ar    1  UNL1        0.0040
     19 C         141.7246  142.6805  163.9517 C.ar    1  UNL1        0.0113
     20 C         141.3026  141.6090  164.9128 C.3     1  UNL1        0.1213
     21 C         140.1287  145.7123  161.9489 C.3     1  UNL1        0.4200
     22 F         139.1197  146.6924  161.4280 F       1  UNL1       -0.1658
     23 F         140.9101  145.8397  160.6749 F       1  UNL1       -0.1658
     24 F         139.3472  145.5849  163.2229 F       1  UNL1       -0.1658
     25 C         140.5987  141.3337  170.2347 C.3     1  UNL1        0.3975
     26 F         140.9357  142.0873  171.4870 F       1  UNL1       -0.1701
     27 F         141.9911  140.7772  170.1948 F       1  UNL1       -0.1701
     28 F         139.2063  141.8901  170.2745 F       1  UNL1       -0.1701
     29 N         138.8870  137.5069  163.8755 N.3     1  UNL1       -0.2975
     30 H         139.5350  136.7210  163.8214 H       1  UNL1        0.1232
     31 C         140.1646  138.0989  161.6921 C.3     1  UNL1        0.1591
     32 C         140.2136  138.7928  160.3631 C.3     1  UNL1        0.1729
     33 O         139.0339  139.5884  159.8886 O.3     1  UNL1       -0.3511
     34 C         137.8052  139.6903  160.7430 C.3     1  UNL1        0.1437
     35 C         137.7562  138.9964  162.0720 C.3     1  UNL1        0.0503
     36 C         138.9360  138.2007  162.5465 C.3     1  UNL1        0.0865
     37 C         142.6219  138.0003  162.5301 C.3     1  UNL1        0.1742
     38 O         141.3443  137.3033  162.1667 O.3     1  UNL1       -0.3496
@<TRIPOS>BOND
     1    37    38    1
     2    38    31    1
     3    31    32    1
     4    32    33    1
     5    33    34    1
     6    34    35    1
     7    35    36    1
     8    36    29    1
     9     1    29    1
    10     1     2    1
    11     3     2    1
    12     3     4    1
    13     4     5    1
    14     5    25    1
    15    25    26    1
    16    25    27    1
    17    25    28    1
    18     5     6    1
    19     6     7    1
    20     7     9    1
    21     9    10    2
    22     9    11   am
    23    11    12    1
    24    12    13    1
    25    13    14    1
    26    14    15   ar
    27    15    16   ar
    28    16    17   ar
    29    17    21    1
    30    21    22    1
    31    21    23    1
    32    21    24    1
    33    17    18   ar
    34    18    19   ar
    35    19    20    1
    36     7     8    1
    37    36    31    1
    38     8     1    1
    39     7     3    1
    40    20    11    1
    41    19    14   ar
    42    29    30    1
@<TRIPOS>MOLECULE
*****
 38 42 0 0 0
SMALL
GASTEIGER

@<TRIPOS>ATOM
      1 C         139.1787  138.7677  165.6978 C.3     1  UNL1        0.0545
      2 C         138.4179  139.2156  166.9104 C.3     1  UNL1        0.0162
      3 C         139.3912  139.8464  167.8616 C.3     1  UNL1        0.0098
      4 C         139.5226  140.5131  169.1988 C.3     1  UNL1        0.0090
      5 C         140.9662  140.8670  169.4006 C.3     1  UNL1        0.0956
      6 C         141.7271  140.4190  168.1880 C.3     1  UNL1        0.0171
      7 C         140.7537  139.7883  167.2368 C.3     1  UNL1        0.0706
      8 C         140.6224  139.1216  165.8996 C.3     1  UNL1        0.0243
      9 C         142.1162  139.7301  166.6121 C.2     1  UNL1        0.2250
     10 O         143.1117  138.7091  167.0773 O.2     1  UNL1       -0.2749
     11 N         142.4832  140.6931  165.5221 N.am    1  UNL1       -0.2750
     12 C         143.8456  140.6350  164.8973 C.3     1  UNL1        0.1000
     13 C         144.2125  141.5979  163.8073 C.3     1  UNL1        0.0670
     14 C         143.2170  142.6190  163.3421 C.ar    1  UNL1        0.0583
     15 N         143.5840  143.5819  162.2521 N.ar    1  UNL1       -0.2484
     16 C         142.5885  144.6030  161.7868 C.ar    1  UNL1        0.1023
     17 C         141.2260  144.6611  162.4117 C.ar    1  UNL1        0.0902
     18 C         140.8591  143.6981  163.5016 C.ar    1  UNL1        0.0040
     19 C         141.8546  142.6771  163.9669 C.ar    1  UNL1        0.0113
     20 C         141.4877  141.7142  165.0568 C.3     1  UNL1        0.1213
     21 C         140.2305  145.6821  161.9464 C.3     1  UNL1        0.4200
     22 F         139.2350  146.7032  161.4812 F       1  UNL1       -0.1658
     23 F         140.9467  145.7816  160.6322 F       1  UNL1       -0.1658
     24 F         139.5143  145.5826  163.2606 F       1  UNL1       -0.1658
     25 C         141.5470  141.5491  170.6037 C.3     1  UNL1        0.3975
     26 F         142.1276  142.2312  171.8068 F       1  UNL1       -0.1701
     27 F         142.9222  141.1261  170.1798 F       1  UNL1       -0.1701
     28 F         140.1717  141.9721  171.0276 F       1  UNL1       -0.1701
     29 N         138.5980  138.0856  164.4947 N.3     1  UNL1       -0.2975
     30 H         138.9057  137.1137  164.5300 H       1  UNL1        0.1232
     31 C         138.2990  139.8659  162.6263 C.3     1  UNL1        0.1591
     32 C         138.6182  140.3714  161.2505 C.3     1  UNL1        0.1729
     33 O         139.5555  139.6021  160.3676 O.3     1  UNL1       -0.3511
     34 C         140.1736  138.3273  160.8603 C.3     1  UNL1        0.1437
     35 C         139.8545  137.8217  162.2360 C.3     1  UNL1        0.0503
     36 C         138.9171  138.5911  163.1190 C.3     1  UNL1        0.0865
     37 C         137.8176  141.9086  164.1578 C.3     1  UNL1        0.1742
     38 O         137.3618  140.6351  163.5092 O.3     1  UNL1       -0.3496
@<TRIPOS>BOND
     1    37    38    1
     2    38    31    1
     3    31    32    1
     4    32    33    1
     5    33    34    1
     6    34    35    1
     7    35    36    1
     8    36    29    1
     9     1    29    1
    10     1     2    1
    11     3     2    1
    12     3     4    1
    13     4     5    1
    14     5    25    1
    15    25    26    1
    16    25    27    1
    17    25    28    1
    18     5     6    1
    19     6     7    1
    20     7     9    1
    21     9    10    2
    22     9    11   am
    23    11    12    1
    24    12    13    1
    25    13    14    1
    26    14    15   ar
    27    15    16   ar
    28    16    17   ar
    29    17    21    1
    30    21    22    1
    31    21    23    1
    32    21    24    1
    33    17    18   ar
    34    18    19   ar
    35    19    20    1
    36     7     8    1
    37    36    31    1
    38     8     1    1
    39     7     3    1
    40    20    11    1
    41    19    14   ar
    42    29    30    1
@<TRIPOS>MOLECULE
*****
 38 42 0 0 0
SMALL
GASTEIGER

@<TRIPOS>ATOM
      1 C         140.5870  137.6931  163.7814 C.3     1  UNL1        0.0545
      2 C         139.2032  137.6473  164.3585 C.3     1  UNL1        0.0162
      3 C         139.2120  138.4179  165.6454 C.3     1  UNL1        0.0098
      4 C         138.3622  138.8659  166.7974 C.3     1  UNL1        0.0090
      5 C         139.2262  139.6648  167.7276 C.3     1  UNL1        0.0956
      6 C         140.6099  139.7106  167.1505 C.3     1  UNL1        0.0171
      7 C         140.6012  138.9400  165.8636 C.3     1  UNL1        0.0706
      8 C         141.4510  138.4921  164.7116 C.3     1  UNL1        0.0243
      9 C         141.9903  139.4621  166.0818 C.2     1  UNL1        0.2250
     10 O         142.9331  138.7290  166.9895 O.2     1  UNL1       -0.2749
     11 N         142.4368  140.7172  165.3923 N.am    1  UNL1       -0.2750
     12 C         143.8260  141.2393  165.6105 C.3     1  UNL1        0.1000
     13 C         144.2723  142.4944  164.9211 C.3     1  UNL1        0.0670
     14 C         143.3296  143.2274  164.0134 C.ar    1  UNL1        0.0583
     15 N         143.7760  144.4826  163.3239 N.ar    1  UNL1       -0.2484
     16 C         142.8333  145.2157  162.4163 C.ar    1  UNL1        0.1023
     17 C         141.4440  144.6935  162.1981 C.ar    1  UNL1        0.0902
     18 C         140.9977  143.4384  162.8876 C.ar    1  UNL1        0.0040
     19 C         141.9404  142.7054  163.7952 C.ar    1  UNL1        0.0113
     20 C         141.4940  141.4503  164.4847 C.3     1  UNL1        0.1213
     21 C         140.5013  145.4266  161.2905 C.3     1  UNL1        0.4200
     22 F         139.5585  146.1596  160.3828 F       1  UNL1       -0.1658
     23 F         140.6805  144.3645  160.2465 F       1  UNL1       -0.1658
     24 F         140.3220  146.4887  162.3344 F       1  UNL1       -0.1658
     25 C         138.7840  140.3054  169.0099 C.3     1  UNL1        0.3975
     26 F         138.3417  140.9460  170.2921 F       1  UNL1       -0.1701
     27 F         139.8787  141.3225  168.8793 F       1  UNL1       -0.1701
     28 F         137.6893  139.2883  169.1405 F       1  UNL1       -0.1701
     29 N         141.0292  137.0525  162.4991 N.3     1  UNL1       -0.2975
     30 H         141.6154  136.2576  162.7539 H       1  UNL1        0.1232
     31 C         141.0832  138.4784  160.3280 C.3     1  UNL1        0.1591
     32 C         141.8516  139.2766  159.3168 C.3     1  UNL1        0.1729
     33 O         143.3344  139.4471  159.4656 O.3     1  UNL1       -0.3511
     34 C         144.0489  138.8194  160.6257 C.3     1  UNL1        0.1437
     35 C         143.2805  138.0212  161.6368 C.3     1  UNL1        0.0503
     36 C         141.7976  137.8507  161.4880 C.3     1  UNL1        0.0865
     37 C         138.6637  139.2624  160.8586 C.3     1  UNL1        0.1742
     38 O         139.6004  138.3078  160.1791 O.3     1  UNL1       -0.3496
@<TRIPOS>BOND
     1    37    38    1
     2    38    31    1
     3    31    32    1
     4    32    33    1
     5    33    34    1
     6    34    35    1
     7    35    36    1
     8    36    29    1
     9     1    29    1
    10     1     2    1
    11     3     2    1
    12     3     4    1
    13     4     5    1
    14     5    25    1
    15    25    26    1
    16    25    27    1
    17    25    28    1
    18     5     6    1
    19     6     7    1
    20     7     9    1
    21     9    10    2
    22     9    11   am
    23    11    12    1
    24    12    13    1
    25    13    14    1
    26    14    15   ar
    27    15    16   ar
    28    16    17   ar
    29    17    21    1
    30    21    22    1
    31    21    23    1
    32    21    24    1
    33    17    18   ar
    34    18    19   ar
    35    19    20    1
    36     7     8    1
    37    36    31    1
    38     8     1    1
    39     7     3    1
    40    20    11    1
    41    19    14   ar
    42    29    30    1
@<TRIPOS>MOLECULE
*****
 38 42 0 0 0
SMALL
GASTEIGER

@<TRIPOS>ATOM
      1 C         138.8867  140.1573  165.3992 C.3     1  UNL1        0.0545
      2 C         139.6737  139.2789  166.3260 C.3     1  UNL1        0.0162
      3 C         140.6696  140.1390  167.0458 C.3     1  UNL1        0.0098
      4 C         141.7716  140.1278  168.0634 C.3     1  UNL1        0.0090
      5 C         142.2812  141.5309  168.2105 C.3     1  UNL1        0.0956
      6 C         141.4942  142.4094  167.2837 C.3     1  UNL1        0.0171
      7 C         140.4982  141.5492  166.5639 C.3     1  UNL1        0.0706
      8 C         139.3963  141.5604  165.5462 C.3     1  UNL1        0.0243
      9 C         140.3267  142.9592  166.0820 C.2     1  UNL1        0.2250
     10 O         139.6725  143.9795  166.9656 O.2     1  UNL1       -0.2749
     11 N         140.8095  143.3490  164.7163 N.am    1  UNL1       -0.2750
     12 C         140.6381  144.7591  164.2343 C.3     1  UNL1        0.1000
     13 C         141.1209  145.1488  162.8687 C.3     1  UNL1        0.0670
     14 C         141.7751  144.1285  161.9850 C.ar    1  UNL1        0.0583
     15 N         142.2579  144.5183  160.6193 N.ar    1  UNL1       -0.2484
     16 C         142.9122  143.4980  159.7357 C.ar    1  UNL1        0.1023
     17 C         143.0837  142.0879  160.2177 C.ar    1  UNL1        0.0902
     18 C         142.6009  141.6982  161.5833 C.ar    1  UNL1        0.0040
     19 C         141.9466  142.7185  162.4670 C.ar    1  UNL1        0.0113
     20 C         141.4638  142.3287  163.8326 C.3     1  UNL1        0.1213
     21 C         143.7379  141.0676  159.3340 C.3     1  UNL1        0.4200
     22 F         144.3922  140.0473  158.4503 F       1  UNL1       -0.1658
     23 F         144.6369  142.1295  158.7735 F       1  UNL1       -0.1658
     24 F         142.8389  140.0057  159.8945 F       1  UNL1       -0.1658
     25 C         143.3841  141.9772  169.1239 C.3     1  UNL1        0.3975
     26 F         144.4870  142.4234  170.0374 F       1  UNL1       -0.1701
     27 F         143.9640  142.8081  168.0179 F       1  UNL1       -0.1701
     28 F         142.8043  141.1463  170.2300 F       1  UNL1       -0.1701
     29 N         137.7837  139.7110  164.4857 N.3     1  UNL1       -0.2975
     30 H         137.4482  138.8170  164.8442 H       1  UNL1        0.1232
     31 C         137.6902  140.5944  162.0443 C.3     1  UNL1        0.1591
     32 C         137.9601  140.4007  160.5815 C.3     1  UNL1        0.1729
     33 O         138.5933  139.1300  160.0975 O.3     1  UNL1       -0.3511
     34 C         138.9566  138.0529  161.0762 C.3     1  UNL1        0.1437
     35 C         138.6868  138.2466  162.5390 C.3     1  UNL1        0.0503
     36 C         138.0536  139.5174  163.0230 C.3     1  UNL1        0.0865
     37 C         137.8446  143.1418  162.5313 C.3     1  UNL1        0.1742
     38 O         137.0570  141.8651  162.5283 O.3     1  UNL1       -0.3496
@<TRIPOS>BOND
     1    37    38    1
     2    38    31    1
     3    31    32    1
     4    32    33    1
     5    33    34    1
     6    34    35    1
     7    35    36    1
     8    36    29    1
     9     1    29    1
    10     1     2    1
    11     3     2    1
    12     3     4    1
    13     4     5    1
    14     5    25    1
    15    25    26    1
    16    25    27    1
    17    25    28    1
    18     5     6    1
    19     6     7    1
    20     7     9    1
    21     9    10    2
    22     9    11   am
    23    11    12    1
    24    12    13    1
    25    13    14    1
    26    14    15   ar
    27    15    16   ar
    28    16    17   ar
    29    17    21    1
    30    21    22    1
    31    21    23    1
    32    21    24    1
    33    17    18   ar
    34    18    19   ar
    35    19    20    1
    36     7     8    1
    37    36    31    1
    38     8     1    1
    39     7     3    1
    40    20    11    1
    41    19    14   ar
    42    29    30    1
@<TRIPOS>MOLECULE
*****
 38 42 0 0 0
SMALL
GASTEIGER

@<TRIPOS>ATOM
      1 C         140.6009  144.0669  160.4311 C.3     1  UNL1        0.0545
      2 C         140.6750  145.1471  161.4692 C.3     1  UNL1        0.0162
      3 C         141.7713  144.7925  162.4297 C.3     1  UNL1        0.0098
      4 C         142.4947  145.2409  163.6648 C.3     1  UNL1        0.0090
      5 C         143.5451  144.2186  163.9837 C.3     1  UNL1        0.0956
      6 C         143.4710  143.1385  162.9455 C.3     1  UNL1        0.0171
      7 C         142.3747  143.4931  161.9851 C.3     1  UNL1        0.0706
      8 C         141.6514  143.0447  160.7499 C.3     1  UNL1        0.0243
      9 C         142.9781  142.1938  161.5405 C.2     1  UNL1        0.2250
     10 O         144.0872  142.1885  160.5306 O.2     1  UNL1       -0.2749
     11 N         142.4724  140.8996  162.1059 N.am    1  UNL1       -0.2750
     12 C         143.0758  139.6003  161.6613 C.3     1  UNL1        0.1000
     13 C         142.5701  138.3063  162.2267 C.3     1  UNL1        0.0670
     14 C         141.4611  138.3116  163.2366 C.ar    1  UNL1        0.0583
     15 N         140.9554  137.0174  163.8020 N.ar    1  UNL1       -0.2484
     16 C         139.8463  137.0227  164.8119 C.ar    1  UNL1        0.1023
     17 C         139.2430  138.3221  165.2565 C.ar    1  UNL1        0.0902
     18 C         139.7486  139.6161  164.6911 C.ar    1  UNL1        0.0040
     19 C         140.8577  139.6109  163.6812 C.ar    1  UNL1        0.0113
     20 C         141.3634  140.9049  163.1158 C.3     1  UNL1        0.1213
     21 C         138.1339  138.3273  166.2664 C.3     1  UNL1        0.4200
     22 F         137.0248  138.3326  167.2764 F       1  UNL1       -0.1658
     23 F         138.1822  139.8259  166.3117 F       1  UNL1       -0.1658
     24 F         138.0856  136.8288  166.2212 F       1  UNL1       -0.1658
     25 C         144.5018  144.2680  165.1380 C.3     1  UNL1        0.3975
     26 F         145.4584  144.3173  166.2923 F       1  UNL1       -0.1701
     27 F         144.3791  145.7624  165.1759 F       1  UNL1       -0.1701
     28 F         144.6245  142.7735  165.1002 F       1  UNL1       -0.1701
     29 N         139.6443  144.0176  159.2767 N.3     1  UNL1       -0.2975
     30 H         138.8044  144.5172  159.5688 H       1  UNL1        0.1232
     31 C         138.3046  141.8088  159.5537 C.3     1  UNL1        0.1591
     32 C         137.8541  140.4858  159.0090 C.3     1  UNL1        0.1729
     33 O         138.2926  140.0485  157.6429 O.3     1  UNL1       -0.3511
     34 C         139.1817  140.9343  156.8212 C.3     1  UNL1        0.1437
     35 C         139.6323  142.2573  157.3659 C.3     1  UNL1        0.0503
     36 C         139.1937  142.6946  158.7321 C.3     1  UNL1        0.0865
     37 C         137.7548  141.2423  162.0289 C.3     1  UNL1        0.1742
     38 O         137.8661  142.2461  160.9198 O.3     1  UNL1       -0.3496
@<TRIPOS>BOND
     1    37    38    1
     2    38    31    1
     3    31    32    1
     4    32    33    1
     5    33    34    1
     6    34    35    1
     7    35    36    1
     8    36    29    1
     9     1    29    1
    10     1     2    1
    11     3     2    1
    12     3     4    1
    13     4     5    1
    14     5    25    1
    15    25    26    1
    16    25    27    1
    17    25    28    1
    18     5     6    1
    19     6     7    1
    20     7     9    1
    21     9    10    2
    22     9    11   am
    23    11    12    1
    24    12    13    1
    25    13    14    1
    26    14    15   ar
    27    15    16   ar
    28    16    17   ar
    29    17    21    1
    30    21    22    1
    31    21    23    1
    32    21    24    1
    33    17    18   ar
    34    18    19   ar
    35    19    20    1
    36     7     8    1
    37    36    31    1
    38     8     1    1
    39     7     3    1
    40    20    11    1
    41    19    14   ar
    42    29    30    1
@<TRIPOS>MOLECULE
*****
 38 42 0 0 0
SMALL
GASTEIGER

@<TRIPOS>ATOM
      1 C         138.9003  143.0049  165.1656 C.3     1  UNL1        0.0545
      2 C         139.8582  143.5015  166.2076 C.3     1  UNL1        0.0162
      3 C         140.3844  142.3137  166.9574 C.3     1  UNL1        0.0098
      4 C         141.3016  141.8865  168.0647 C.3     1  UNL1        0.0090
      5 C         141.2357  140.3916  168.1705 C.3     1  UNL1        0.0956
      6 C         140.2778  139.8950  167.1285 C.3     1  UNL1        0.0171
      7 C         139.7516  141.0828  166.3787 C.3     1  UNL1        0.0706
      8 C         138.8344  141.5100  165.2714 C.3     1  UNL1        0.0243
      9 C         139.1189  139.8521  165.8001 C.2     1  UNL1        0.2250
     10 O         138.0481  139.1299  166.5629 O.2     1  UNL1       -0.2749
     11 N         139.5570  139.3434  164.4587 N.am    1  UNL1       -0.2750
     12 C         138.9243  138.1126  163.8801 C.3     1  UNL1        0.1000
     13 C         139.3624  137.6040  162.5387 C.3     1  UNL1        0.0670
     14 C         140.4333  138.3262  161.7760 C.ar    1  UNL1        0.0583
     15 N         140.8714  137.8175  160.4345 N.ar    1  UNL1       -0.2484
     16 C         141.9422  138.5396  159.6718 C.ar    1  UNL1        0.1023
     17 C         142.5750  139.7705  160.2504 C.ar    1  UNL1        0.0902
     18 C         142.1368  140.2791  161.5918 C.ar    1  UNL1        0.0040
     19 C         141.0660  139.5569  162.3546 C.ar    1  UNL1        0.0113
     20 C         140.6279  140.0655  163.6959 C.3     1  UNL1        0.1213
     21 C         143.6458  140.4926  159.4877 C.3     1  UNL1        0.4200
     22 F         144.7166  141.2148  158.7249 F       1  UNL1       -0.1658
     23 F         143.4769  139.5359  158.3448 F       1  UNL1       -0.1658
     24 F         143.8147  141.4493  160.6306 F       1  UNL1       -0.1658
     25 C         141.9946  139.5426  169.1468 C.3     1  UNL1        0.3975
     26 F         142.7534  138.6935  170.1232 F       1  UNL1       -0.1701
     27 F         143.0279  139.2589  168.0972 F       1  UNL1       -0.1701
     28 F         140.9613  139.8262  170.1965 F       1  UNL1       -0.1701
     29 N         138.1414  143.8540  164.1893 N.3     1  UNL1       -0.2975
     30 H         137.2076  143.4509  164.1121 H       1  UNL1        0.1232
     31 C         138.3157  143.0180  161.7356 C.3     1  UNL1        0.1591
     32 C         138.8287  143.1931  160.3369 C.3     1  UNL1        0.1729
     33 O         139.6802  144.3791  159.9933 O.3     1  UNL1       -0.3511
     34 C         140.0188  145.3902  161.0484 C.3     1  UNL1        0.1437
     35 C         139.5059  145.2152  162.4470 C.3     1  UNL1        0.0503
     36 C         138.6543  144.0290  162.7906 C.3     1  UNL1        0.0865
     37 C         137.6026  140.5581  161.2992 C.3     1  UNL1        0.1742
     38 O         137.4642  141.8320  162.0792 O.3     1  UNL1       -0.3496
@<TRIPOS>BOND
     1    37    38    1
     2    38    31    1
     3    31    32    1
     4    32    33    1
     5    33    34    1
     6    34    35    1
     7    35    36    1
     8    36    29    1
     9     1    29    1
    10     1     2    1
    11     3     2    1
    12     3     4    1
    13     4     5    1
    14     5    25    1
    15    25    26    1
    16    25    27    1
    17    25    28    1
    18     5     6    1
    19     6     7    1
    20     7     9    1
    21     9    10    2
    22     9    11   am
    23    11    12    1
    24    12    13    1
    25    13    14    1
    26    14    15   ar
    27    15    16   ar
    28    16    17   ar
    29    17    21    1
    30    21    22    1
    31    21    23    1
    32    21    24    1
    33    17    18   ar
    34    18    19   ar
    35    19    20    1
    36     7     8    1
    37    36    31    1
    38     8     1    1
    39     7     3    1
    40    20    11    1
    41    19    14   ar
    42    29    30    1
@<TRIPOS>MOLECULE
*****
 38 42 0 0 0
SMALL
GASTEIGER

@<TRIPOS>ATOM
      1 C         142.8501  138.8584  163.2193 C.3     1  UNL1        0.0545
      2 C         141.9615  137.6500  163.2303 C.3     1  UNL1        0.0162
      3 C         140.8582  137.8949  164.2166 C.3     1  UNL1        0.0098
      4 C         139.6272  137.2994  164.8330 C.3     1  UNL1        0.0090
      5 C         139.0732  138.2912  165.8126 C.3     1  UNL1        0.0956
      6 C         139.9618  139.4996  165.8016 C.3     1  UNL1        0.0171
      7 C         141.0650  139.2547  164.8152 C.3     1  UNL1        0.0706
      8 C         142.2960  139.8501  164.1988 C.3     1  UNL1        0.0243
      9 C         141.2718  140.6144  165.4138 C.2     1  UNL1        0.2250
     10 O         141.6422  140.7483  166.8612 O.2     1  UNL1       -0.2749
     11 N         141.1081  141.8404  164.5650 N.am    1  UNL1       -0.2750
     12 C         141.3149  143.2001  165.1636 C.3     1  UNL1        0.1000
     13 C         141.1512  144.4259  164.3148 C.3     1  UNL1        0.0670
     14 C         140.7807  144.2920  162.8674 C.ar    1  UNL1        0.0583
     15 N         140.6170  145.5180  162.0186 N.ar    1  UNL1       -0.2484
     16 C         140.2465  145.3841  160.5713 C.ar    1  UNL1        0.1023
     17 C         140.0397  144.0242  159.9727 C.ar    1  UNL1        0.0902
     18 C         140.2034  142.7984  160.8215 C.ar    1  UNL1        0.0040
     19 C         140.5739  142.9323  162.2689 C.ar    1  UNL1        0.0113
     20 C         140.7376  141.7065  163.1177 C.3     1  UNL1        0.1213
     21 C         139.6693  143.8903  158.5254 C.3     1  UNL1        0.4200
     22 F         139.2988  143.7564  157.0780 F       1  UNL1       -0.1658
     23 F         140.7340  144.8822  158.1611 F       1  UNL1       -0.1658
     24 F         138.6046  142.8985  158.8897 F       1  UNL1       -0.1658
     25 C         137.8459  138.1068  166.6552 C.3     1  UNL1        0.3975
     26 F         136.6187  137.9225  167.4978 F       1  UNL1       -0.1701
     27 F         137.8072  136.6547  166.2812 F       1  UNL1       -0.1701
     28 F         137.8847  139.5589  167.0293 F       1  UNL1       -0.1701
     29 N         144.0773  139.0428  162.3766 N.3     1  UNL1       -0.2975
     30 H         144.8697  139.0908  163.0170 H       1  UNL1        0.1232
     31 C         144.8905  141.4683  161.9232 C.3     1  UNL1        0.1591
     32 C         145.0011  142.6516  161.0080 C.3     1  UNL1        0.1729
     33 O         144.4090  142.5927  159.6311 O.3     1  UNL1       -0.3511
     34 C         143.7063  141.3505  159.1693 C.3     1  UNL1        0.1437
     35 C         143.5957  140.1672  160.0845 C.3     1  UNL1        0.0503
     36 C         144.1879  140.2261  161.4614 C.3     1  UNL1        0.0865
     37 C         144.8868  142.4355  164.3345 C.3     1  UNL1        0.1742
     38 O         145.4826  141.5271  163.3001 O.3     1  UNL1       -0.3496
@<TRIPOS>BOND
     1    37    38    1
     2    38    31    1
     3    31    32    1
     4    32    33    1
     5    33    34    1
     6    34    35    1
     7    35    36    1
     8    36    29    1
     9     1    29    1
    10     1     2    1
    11     3     2    1
    12     3     4    1
    13     4     5    1
    14     5    25    1
    15    25    26    1
    16    25    27    1
    17    25    28    1
    18     5     6    1
    19     6     7    1
    20     7     9    1
    21     9    10    2
    22     9    11   am
    23    11    12    1
    24    12    13    1
    25    13    14    1
    26    14    15   ar
    27    15    16   ar
    28    16    17   ar
    29    17    21    1
    30    21    22    1
    31    21    23    1
    32    21    24    1
    33    17    18   ar
    34    18    19   ar
    35    19    20    1
    36     7     8    1
    37    36    31    1
    38     8     1    1
    39     7     3    1
    40    20    11    1
    41    19    14   ar
    42    29    30    1
@<TRIPOS>MOLECULE
*****
 38 42 0 0 0
SMALL
GASTEIGER

@<TRIPOS>ATOM
      1 C         144.0727  139.3862  164.9209 C.3     1  UNL1        0.0545
      2 C         143.6490  138.5532  166.0942 C.3     1  UNL1        0.0162
      3 C         143.0360  139.4666  167.1139 C.3     1  UNL1        0.0098
      4 C         142.3953  139.5164  168.4693 C.3     1  UNL1        0.0090
      5 C         142.0442  140.9446  168.7639 C.3     1  UNL1        0.0956
      6 C         142.4680  141.7776  167.5907 C.3     1  UNL1        0.0171
      7 C         143.0809  140.8642  166.5709 C.3     1  UNL1        0.0706
      8 C         143.7216  140.8145  165.2156 C.3     1  UNL1        0.0243
      9 C         143.1258  142.2617  166.0279 C.2     1  UNL1        0.2250
     10 O         144.0677  143.2671  166.6214 O.2     1  UNL1       -0.2749
     11 N         142.2289  142.6540  164.8914 N.am    1  UNL1       -0.2750
     12 C         142.2738  144.0515  164.3483 C.3     1  UNL1        0.1000
     13 C         141.3769  144.4436  163.2118 C.3     1  UNL1        0.0670
     14 C         140.4350  143.4383  162.6183 C.ar    1  UNL1        0.0583
     15 N         139.5381  143.8306  161.4818 N.ar    1  UNL1       -0.2484
     16 C         138.5962  142.8252  160.8883 C.ar    1  UNL1        0.1023
     17 C         138.5514  141.4276  161.4314 C.ar    1  UNL1        0.0902
     18 C         139.4483  141.0355  162.5679 C.ar    1  UNL1        0.0040
     19 C         140.3901  142.0408  163.1614 C.ar    1  UNL1        0.0113
     20 C         141.2870  141.6486  164.2979 C.3     1  UNL1        0.1213
     21 C         137.6095  140.4223  160.8379 C.3     1  UNL1        0.4200
     22 F         136.6677  139.4170  160.2444 F       1  UNL1       -0.1658
     23 F         137.8142  141.0309  159.4822 F       1  UNL1       -0.1658
     24 F         137.4049  139.8137  162.1935 F       1  UNL1       -0.1658
     25 C         141.3851  141.4510  170.0127 C.3     1  UNL1        0.3975
     26 F         140.7260  141.9573  171.2613 F       1  UNL1       -0.1701
     27 F         141.7094  140.1614  170.7068 F       1  UNL1       -0.1701
     28 F         141.0609  142.7406  169.3186 F       1  UNL1       -0.1701
     29 N         144.7318  138.8799  163.6722 N.3     1  UNL1       -0.2975
     30 H         145.6262  139.3639  163.5943 H       1  UNL1        0.1232
     31 C         144.2735  140.2531  161.5148 C.3     1  UNL1        0.1591
     32 C         143.5846  140.4004  160.1906 C.3     1  UNL1        0.1729
     33 O         142.6651  139.3219  159.6994 O.3     1  UNL1       -0.3511
     34 C         142.4345  138.0960  160.5324 C.3     1  UNL1        0.1437
     35 C         143.1234  137.9486  161.8567 C.3     1  UNL1        0.0503
     36 C         144.0429  139.0272  162.3479 C.3     1  UNL1        0.0865
     37 C         144.7224  142.7552  162.0513 C.3     1  UNL1        0.1742
     38 O         145.1929  141.3316  162.0061 O.3     1  UNL1       -0.3496
@<TRIPOS>BOND
     1    37    38    1
     2    38    31    1
     3    31    32    1
     4    32    33    1
     5    33    34    1
     6    34    35    1
     7    35    36    1
     8    36    29    1
     9     1    29    1
    10     1     2    1
    11     3     2    1
    12     3     4    1
    13     4     5    1
    14     5    25    1
    15    25    26    1
    16    25    27    1
    17    25    28    1
    18     5     6    1
    19     6     7    1
    20     7     9    1
    21     9    10    2
    22     9    11   am
    23    11    12    1
    24    12    13    1
    25    13    14    1
    26    14    15   ar
    27    15    16   ar
    28    16    17   ar
    29    17    21    1
    30    21    22    1
    31    21    23    1
    32    21    24    1
    33    17    18   ar
    34    18    19   ar
    35    19    20    1
    36     7     8    1
    37    36    31    1
    38     8     1    1
    39     7     3    1
    40    20    11    1
    41    19    14   ar
    42    29    30    1
@<TRIPOS>MOLECULE
*****
 38 42 0 0 0
SMALL
GASTEIGER

@<TRIPOS>ATOM
      1 C         141.8664  138.1210  164.7046 C.3     1  UNL1        0.0545
      2 C         142.9202  138.4176  165.7301 C.3     1  UNL1        0.0162
      3 C         142.3253  139.3401  166.7525 C.3     1  UNL1        0.0098
      4 C         142.6089  140.0935  168.0181 C.3     1  UNL1        0.0090
      5 C         141.3628  140.8326  168.4067 C.3     1  UNL1        0.0956
      6 C         140.3091  140.5360  167.3812 C.3     1  UNL1        0.0171
      7 C         140.9039  139.6135  166.3588 C.3     1  UNL1        0.0706
      8 C         140.6204  138.8601  165.0932 C.3     1  UNL1        0.0243
      9 C         139.4826  139.8870  165.9652 C.2     1  UNL1        0.2250
     10 O         138.3580  139.4051  166.8330 O.2     1  UNL1       -0.2749
     11 N         139.1858  140.6424  164.7037 N.am    1  UNL1       -0.2750
     12 C         137.7644  140.9159  164.3100 C.3     1  UNL1        0.1000
     13 C         137.4677  141.6712  163.0486 C.3     1  UNL1        0.0670
     14 C         138.5923  142.1532  162.1808 C.ar    1  UNL1        0.0583
     15 N         138.2954  142.9086  160.9193 N.ar    1  UNL1       -0.2484
     16 C         139.4200  143.3905  160.0515 C.ar    1  UNL1        0.1023
     17 C         140.8414  143.1170  160.4452 C.ar    1  UNL1        0.0902
     18 C         141.1382  142.3616  161.7066 C.ar    1  UNL1        0.0040
     19 C         140.0136  141.8797  162.5744 C.ar    1  UNL1        0.0113
     20 C         140.3103  141.1243  163.8359 C.3     1  UNL1        0.1213
     21 C         141.9660  143.5989  159.5774 C.3     1  UNL1        0.4200
     22 F         143.0905  144.0809  158.7096 F       1  UNL1       -0.1658
     23 F         142.3082  142.1797  159.2327 F       1  UNL1       -0.1658
     24 F         141.6238  145.0181  159.9221 F       1  UNL1       -0.1658
     25 C         141.1992  141.7137  169.6097 C.3     1  UNL1        0.3975
     26 F         141.0357  142.5948  170.8125 F       1  UNL1       -0.1701
     27 F         139.9746  140.9441  170.0069 F       1  UNL1       -0.1701
     28 F         142.4239  142.4833  169.2124 F       1  UNL1       -0.1701
     29 N         142.0300  137.2399  163.5016 N.3     1  UNL1       -0.2975
     30 H         142.8457  136.6526  163.6755 H       1  UNL1        0.1232
     31 C         141.0362  138.0515  161.2426 C.3     1  UNL1        0.1591
     32 C         141.2239  138.6624  159.8855 C.3     1  UNL1        0.1729
     33 O         142.5931  139.0724  159.4304 O.3     1  UNL1       -0.3511
     34 C         143.7747  138.8716  160.3324 C.3     1  UNL1        0.1437
     35 C         143.5870  138.2608  161.6895 C.3     1  UNL1        0.0503
     36 C         142.2177  137.8507  162.1446 C.3     1  UNL1        0.0865
     37 C         138.4817  138.5049  161.3816 C.3     1  UNL1        0.1742
     38 O         139.6670  137.6415  161.6976 O.3     1  UNL1       -0.3496
@<TRIPOS>BOND
     1    37    38    1
     2    38    31    1
     3    31    32    1
     4    32    33    1
     5    33    34    1
     6    34    35    1
     7    35    36    1
     8    36    29    1
     9     1    29    1
    10     1     2    1
    11     3     2    1
    12     3     4    1
    13     4     5    1
    14     5    25    1
    15    25    26    1
    16    25    27    1
    17    25    28    1
    18     5     6    1
    19     6     7    1
    20     7     9    1
    21     9    10    2
    22     9    11   am
    23    11    12    1
    24    12    13    1
    25    13    14    1
    26    14    15   ar
    27    15    16   ar
    28    16    17   ar
    29    17    21    1
    30    21    22    1
    31    21    23    1
    32    21    24    1
    33    17    18   ar
    34    18    19   ar
    35    19    20    1
    36     7     8    1
    37    36    31    1
    38     8     1    1
    39     7     3    1
    40    20    11    1
    41    19    14   ar
    42    29    30    1
