@<TRIPOS>MOLECULE
*****
 36 39 0 0 0
SMALL
GASTEIGER

@<TRIPOS>ATOM
      1 N         143.9949  141.0798  163.4493 N.3     1  UNL1       -0.2684
      2 C         143.1881  140.7801  162.2208 C.3     1  UNL1        0.1035
      3 C         142.3695  141.8608  161.5790 C.3     1  UNL1        0.1470
      4 C         141.5508  142.9415  160.9372 C.3     1  UNL1        0.1035
      5 N         141.5390  144.3219  161.5239 N.3     1  UNL1       -0.2685
      6 C         142.3458  144.6216  162.7525 C.3     1  UNL1        0.1035
      7 C         143.1645  143.5410  163.3942 C.3     1  UNL1        0.1470
      8 C         143.9831  142.4603  164.0360 C.3     1  UNL1        0.1035
      9 O         142.3577  143.2412  162.1657 O.3     1  UNL1       -0.3530
     10 C         144.8136  139.9991  164.0911 C.3     1  UNL1        0.0761
     11 C         144.1423  138.7740  164.6374 C.3     1  UNL1        0.0646
     12 C         143.8024  138.6924  166.0961 C.3     1  UNL1        0.2068
     13 O         142.3726  138.7878  166.5395 O.3     1  UNL1       -0.4754
     14 C         140.9554  142.4104  168.8019 C.ar    1  UNL1        0.0686
     15 C         140.1143  141.1687  168.7714 C.ar    1  UNL1        0.0134
     16 C         140.5867  139.9612  168.0173 C.ar    1  UNL1        0.0376
     17 C         141.9002  139.9953  167.2936 C.ar    1  UNL1        0.1386
     18 C         142.7413  141.2370  167.3241 C.ar    1  UNL1        0.0376
     19 C         142.2688  142.4445  168.0782 C.ar    1  UNL1        0.0134
     20 N         140.0106  144.8255  170.3101 N.1     1  UNL1       -0.1908
     21 C         140.4830  143.6179  169.5560 C.1     1  UNL1        0.1004
     22 C         140.7204  145.4026  160.8822 C.3     1  UNL1        0.0737
     23 C         139.6801  146.1302  161.6813 C.3     1  UNL1        0.0361
     24 C         138.7043  145.3598  162.5204 C.3     1  UNL1        0.0925
     25 N         138.5247  143.8870  162.2999 N.3     1  UNL1       -0.1830
     26 H         139.3638  143.5561  161.8236 H       1  UNL1        0.1484
     27 S         138.3029  142.9749  163.4699 S.O2    1  UNL1        0.0450
     28 O         137.1572  142.3288  162.7490 O.2     1  UNL1       -0.1572
     29 O         139.4486  143.6211  164.1909 O.2     1  UNL1       -0.1572
     30 C         138.0810  142.0629  164.6399 C.3     1  UNL1        0.1952
     31 C         138.6397  140.6710  164.6224 C.ar    1  UNL1        0.0029
     32 C         138.0445  139.6127  165.5032 C.ar    1  UNL1       -0.0025
     33 C         138.6032  138.2208  165.4856 C.ar    1  UNL1       -0.0003
     34 C         139.7572  137.8871  164.5874 C.ar    1  UNL1       -0.0000
     35 C         140.3525  138.9454  163.7067 C.ar    1  UNL1       -0.0003
     36 C         139.7937  140.3373  163.7242 C.ar    1  UNL1       -0.0025
@<TRIPOS>BOND
     1    20    21    3
     2    21    14    1
     3    14    15   ar
     4    15    16   ar
     5    16    17   ar
     6    17    13    1
     7    13    12    1
     8    12    11    1
     9    11    10    1
    10    10     1    1
    11     1     2    1
    12     2     3    1
    13     3     4    1
    14     4     5    1
    15     5    22    1
    16    22    23    1
    17    23    24    1
    18    24    25    1
    19    25    27    1
    20    27    28    2
    21    27    29    2
    22    27    30    1
    23    30    31    1
    24    31    32   ar
    25    32    33   ar
    26    33    34   ar
    27    34    35   ar
    28    35    36   ar
    29     5     6    1
    30     6     7    1
    31     7     8    1
    32     7     9    1
    33    17    18   ar
    34    18    19   ar
    35    19    14   ar
    36     8     1    1
    37     9     3    1
    38    36    31   ar
    39    25    26    1
@<TRIPOS>MOLECULE
*****
 36 39 0 0 0
SMALL
GASTEIGER

@<TRIPOS>ATOM
      1 N         138.6148  139.3133  164.4844 N.3     1  UNL1       -0.2684
      2 C         139.1867  140.3593  165.3948 C.3     1  UNL1        0.1035
      3 C         139.2360  141.7919  164.9533 C.3     1  UNL1        0.1470
      4 C         139.2854  143.2247  164.5119 C.3     1  UNL1        0.1035
      5 N         138.7629  143.6114  163.1601 N.3     1  UNL1       -0.2685
      6 C         138.1910  142.5653  162.2497 C.3     1  UNL1        0.1035
      7 C         138.1417  141.1326  162.6911 C.3     1  UNL1        0.1470
      8 C         138.0923  139.7000  163.1326 C.3     1  UNL1        0.1035
      9 O         138.7135  142.1786  163.6015 O.3     1  UNL1       -0.3530
     10 C         138.5655  137.8805  164.9259 C.3     1  UNL1        0.0761
     11 C         139.8391  137.1230  165.1583 C.3     1  UNL1        0.0646
     12 C         141.0934  137.5267  164.4414 C.3     1  UNL1        0.2068
     13 O         141.1510  137.4741  162.9435 O.3     1  UNL1       -0.4754
     14 C         143.4596  140.5967  160.6697 C.ar    1  UNL1        0.0686
     15 C         143.8913  139.1610  160.6208 C.ar    1  UNL1        0.0134
     16 C         143.1218  138.1202  161.3787 C.ar    1  UNL1        0.0376
     17 C         141.9205  138.5150  162.1856 C.ar    1  UNL1        0.1386
     18 C         141.4888  139.9506  162.2345 C.ar    1  UNL1        0.0376
     19 C         142.2583  140.9915  161.4766 C.ar    1  UNL1        0.0134
     20 N         144.9986  142.6784  159.1539 N.1     1  UNL1       -0.1908
     21 C         144.2290  141.6376  159.9118 C.1     1  UNL1        0.1004
     22 C         138.8122  145.0441  162.7186 C.3     1  UNL1        0.0737
     23 C         140.0255  145.5692  162.0099 C.3     1  UNL1        0.0361
     24 C         141.2194  144.6834  161.8100 C.3     1  UNL1        0.0925
     25 N         142.5955  145.2012  162.1068 N.3     1  UNL1       -0.1830
     26 H         142.4944  146.1888  162.3409 H       1  UNL1        0.1484
     27 S         143.4115  144.5783  163.2005 S.O2    1  UNL1        0.0450
     28 O         144.5005  144.2742  162.2148 O.2     1  UNL1       -0.1572
     29 O         142.3226  144.8823  164.1862 O.2     1  UNL1       -0.1572
     30 C         144.2276  143.9554  164.2942 C.3     1  UNL1        0.1952
     31 C         144.2102  142.4682  164.4888 C.ar    1  UNL1        0.0029
     32 C         145.2533  141.6136  163.8318 C.ar    1  UNL1       -0.0025
     33 C         145.2359  140.1264  164.0264 C.ar    1  UNL1       -0.0003
     34 C         144.1755  139.4937  164.8780 C.ar    1  UNL1       -0.0000
     35 C         143.1324  140.3483  165.5349 C.ar    1  UNL1       -0.0003
     36 C         143.1498  141.8355  165.3403 C.ar    1  UNL1       -0.0025
@<TRIPOS>BOND
     1    20    21    3
     2    21    14    1
     3    14    15   ar
     4    15    16   ar
     5    16    17   ar
     6    17    13    1
     7    13    12    1
     8    12    11    1
     9    11    10    1
    10    10     1    1
    11     1     2    1
    12     2     3    1
    13     3     4    1
    14     4     5    1
    15     5    22    1
    16    22    23    1
    17    23    24    1
    18    24    25    1
    19    25    27    1
    20    27    28    2
    21    27    29    2
    22    27    30    1
    23    30    31    1
    24    31    32   ar
    25    32    33   ar
    26    33    34   ar
    27    34    35   ar
    28    35    36   ar
    29     5     6    1
    30     6     7    1
    31     7     8    1
    32     7     9    1
    33    17    18   ar
    34    18    19   ar
    35    19    14   ar
    36     8     1    1
    37     9     3    1
    38    36    31   ar
    39    25    26    1
@<TRIPOS>MOLECULE
*****
 36 39 0 0 0
SMALL
GASTEIGER

@<TRIPOS>ATOM
      1 N         139.2372  138.5783  163.7735 N.3     1  UNL1       -0.2684
      2 C         138.5239  139.1826  162.6005 C.3     1  UNL1        0.1035
      3 C         139.1449  139.1289  161.2362 C.3     1  UNL1        0.1470
      4 C         139.7659  139.0753  159.8718 C.3     1  UNL1        0.1035
      5 N         141.1003  138.4173  159.6805 N.3     1  UNL1       -0.2685
      6 C         141.8136  137.8129  160.8535 C.3     1  UNL1        0.1035
      7 C         141.1925  137.8666  162.2179 C.3     1  UNL1        0.1470
      8 C         140.5715  137.9203  163.5822 C.3     1  UNL1        0.1035
      9 O         140.4792  138.4709  161.0449 O.3     1  UNL1       -0.3530
     10 C         138.6161  138.6320  165.1379 C.3     1  UNL1        0.0761
     11 C         138.8676  139.8109  166.0305 C.3     1  UNL1        0.0646
     12 C         140.1662  139.9264  166.7725 C.3     1  UNL1        0.2068
     13 O         141.1961  140.9235  166.3309 O.3     1  UNL1       -0.4754
     14 C         140.0889  144.1539  163.4002 C.ar    1  UNL1        0.0686
     15 C         139.8507  144.3582  164.8670 C.ar    1  UNL1        0.0134
     16 C         140.2197  143.2814  165.8439 C.ar    1  UNL1        0.0376
     17 C         140.8271  142.0003  165.3540 C.ar    1  UNL1        0.1386
     18 C         141.0653  141.7960  163.8872 C.ar    1  UNL1        0.0376
     19 C         140.6962  142.8728  162.9103 C.ar    1  UNL1        0.0134
     20 N         139.3508  146.3074  161.4464 N.1     1  UNL1       -0.1908
     21 C         139.7199  145.2306  162.4233 C.1     1  UNL1        0.1004
     22 C         141.7213  138.3636  158.3161 C.3     1  UNL1        0.0737
     23 C         143.0337  139.0443  158.0621 C.3     1  UNL1        0.0361
     24 C         143.1933  140.5038  158.3693 C.3     1  UNL1        0.0925
     25 N         142.8143  141.0315  159.7212 N.3     1  UNL1       -0.1830
     26 H         142.3007  140.2879  160.1942 H       1  UNL1        0.1484
     27 S         143.8790  141.4943  160.6712 S.O2    1  UNL1        0.0450
     28 O         144.4788  142.3397  159.5871 O.2     1  UNL1       -0.1572
     29 O         143.2792  140.6488  161.7554 O.2     1  UNL1       -0.1572
     30 C         144.9436  141.9570  161.6211 C.3     1  UNL1        0.1952
     31 C         144.5903  142.8730  162.7553 C.ar    1  UNL1        0.0029
     32 C         144.7924  142.4246  164.1723 C.ar    1  UNL1       -0.0025
     33 C         144.4390  143.3405  165.3064 C.ar    1  UNL1       -0.0003
     34 C         143.8836  144.7048  165.0235 C.ar    1  UNL1       -0.0000
     35 C         143.6815  145.1532  163.6065 C.ar    1  UNL1       -0.0003
     36 C         144.0348  144.2373  162.4724 C.ar    1  UNL1       -0.0025
@<TRIPOS>BOND
     1    20    21    3
     2    21    14    1
     3    14    15   ar
     4    15    16   ar
     5    16    17   ar
     6    17    13    1
     7    13    12    1
     8    12    11    1
     9    11    10    1
    10    10     1    1
    11     1     2    1
    12     2     3    1
    13     3     4    1
    14     4     5    1
    15     5    22    1
    16    22    23    1
    17    23    24    1
    18    24    25    1
    19    25    27    1
    20    27    28    2
    21    27    29    2
    22    27    30    1
    23    30    31    1
    24    31    32   ar
    25    32    33   ar
    26    33    34   ar
    27    34    35   ar
    28    35    36   ar
    29     5     6    1
    30     6     7    1
    31     7     8    1
    32     7     9    1
    33    17    18   ar
    34    18    19   ar
    35    19    14   ar
    36     8     1    1
    37     9     3    1
    38    36    31   ar
    39    25    26    1
@<TRIPOS>MOLECULE
*****
 36 39 0 0 0
SMALL
GASTEIGER

@<TRIPOS>ATOM
      1 N         140.5501  143.9658  159.8800 N.3     1  UNL1       -0.2684
      2 C         140.0435  144.7363  161.0631 C.3     1  UNL1        0.1035
      3 C         140.9301  144.9509  162.2538 C.3     1  UNL1        0.1470
      4 C         141.8167  145.1655  163.4446 C.3     1  UNL1        0.1035
      5 N         143.2099  144.6096  163.4522 N.3     1  UNL1       -0.2685
      6 C         143.7165  143.8391  162.2691 C.3     1  UNL1        0.1035
      7 C         142.8299  143.6245  161.0784 C.3     1  UNL1        0.1470
      8 C         141.9433  143.4099  159.8877 C.3     1  UNL1        0.1035
      9 O         142.3233  144.3950  162.2614 O.3     1  UNL1       -0.3530
     10 C         139.6635  143.7511  158.6892 C.3     1  UNL1        0.0761
     11 C         138.6083  142.6856  158.7222 C.3     1  UNL1        0.0646
     12 C         138.8933  141.3679  159.3800 C.3     1  UNL1        0.2068
     13 O         138.0918  140.9360  160.5721 O.3     1  UNL1       -0.4754
     14 C         139.5235  141.9212  164.7229 C.ar    1  UNL1        0.0686
     15 C         138.0536  141.8773  164.4272 C.ar    1  UNL1        0.0134
     16 C         137.5764  141.5489  163.0437 C.ar    1  UNL1        0.0376
     17 C         138.5690  141.2644  161.9557 C.ar    1  UNL1        0.1386
     18 C         140.0390  141.3083  162.2513 C.ar    1  UNL1        0.0376
     19 C         140.5162  141.6367  163.6350 C.ar    1  UNL1        0.0134
     20 N         140.4780  142.5781  167.4901 N.1     1  UNL1       -0.1908
     21 C         140.0008  142.2496  166.1065 C.1     1  UNL1        0.1004
     22 C         144.0965  144.8242  164.6429 C.3     1  UNL1        0.0737
     23 C         144.5308  143.6543  165.4753 C.3     1  UNL1        0.0361
     24 C         143.7346  142.3832  165.4557 C.3     1  UNL1        0.0925
     25 N         144.2528  141.1850  164.7171 N.3     1  UNL1       -0.1830
     26 H         145.2300  141.0726  164.9870 H       1  UNL1        0.1484
     27 S         143.5964  139.8488  164.9011 S.O2    1  UNL1        0.0450
     28 O         142.8371  140.3840  166.0788 O.2     1  UNL1       -0.1572
     29 O         144.3556  139.3136  163.7234 O.2     1  UNL1       -0.1572
     30 C         142.9399  138.5127  165.0851 C.3     1  UNL1        0.1952
     31 C         141.5782  138.2604  164.5089 C.ar    1  UNL1        0.0029
     32 C         141.4334  137.8798  163.0653 C.ar    1  UNL1       -0.0025
     33 C         140.0717  137.6275  162.4891 C.ar    1  UNL1       -0.0003
     34 C         138.8547  137.7557  163.3565 C.ar    1  UNL1       -0.0000
     35 C         138.9995  138.1362  164.8002 C.ar    1  UNL1       -0.0003
     36 C         140.3612  138.3886  165.3764 C.ar    1  UNL1       -0.0025
@<TRIPOS>BOND
     1    20    21    3
     2    21    14    1
     3    14    15   ar
     4    15    16   ar
     5    16    17   ar
     6    17    13    1
     7    13    12    1
     8    12    11    1
     9    11    10    1
    10    10     1    1
    11     1     2    1
    12     2     3    1
    13     3     4    1
    14     4     5    1
    15     5    22    1
    16    22    23    1
    17    23    24    1
    18    24    25    1
    19    25    27    1
    20    27    28    2
    21    27    29    2
    22    27    30    1
    23    30    31    1
    24    31    32   ar
    25    32    33   ar
    26    33    34   ar
    27    34    35   ar
    28    35    36   ar
    29     5     6    1
    30     6     7    1
    31     7     8    1
    32     7     9    1
    33    17    18   ar
    34    18    19   ar
    35    19    14   ar
    36     8     1    1
    37     9     3    1
    38    36    31   ar
    39    25    26    1
@<TRIPOS>MOLECULE
*****
 36 39 0 0 0
SMALL
GASTEIGER

@<TRIPOS>ATOM
      1 N         144.6097  140.3564  162.8148 N.3     1  UNL1       -0.2684
      2 C         144.4964  141.2109  161.5873 C.3     1  UNL1        0.1035
      3 C         143.9927  140.6182  160.3048 C.3     1  UNL1        0.1470
      4 C         143.4889  140.0254  159.0222 C.3     1  UNL1        0.1035
      5 N         143.0986  138.5781  158.9672 N.3     1  UNL1       -0.2685
      6 C         143.2120  137.7236  160.1949 C.3     1  UNL1        0.1035
      7 C         143.7157  138.3164  161.4774 C.3     1  UNL1        0.1470
      8 C         144.2194  138.9091  162.7599 C.3     1  UNL1        0.1035
      9 O         143.6023  139.1709  160.2498 O.3     1  UNL1       -0.3530
     10 C         145.1134  140.9492  164.0974 C.3     1  UNL1        0.0761
     11 C         145.0196  142.4284  164.3278 C.3     1  UNL1        0.0646
     12 C         143.7891  143.0131  164.9557 C.3     1  UNL1        0.2068
     13 O         142.4553  142.8446  164.2905 O.3     1  UNL1       -0.4754
     14 C         139.4212  140.0067  166.0199 C.ar    1  UNL1        0.0686
     15 C         140.0533  139.7111  164.6921 C.ar    1  UNL1        0.0134
     16 C         141.0646  140.6570  164.1156 C.ar    1  UNL1        0.0376
     17 C         141.4440  141.8987  164.8670 C.ar    1  UNL1        0.1386
     18 C         140.8119  142.1943  166.1948 C.ar    1  UNL1        0.0376
     19 C         139.8005  141.2483  166.7713 C.ar    1  UNL1        0.0134
     20 N         137.3985  138.1148  167.1729 N.1     1  UNL1       -0.1908
     21 C         138.4099  139.0608  166.5964 C.1     1  UNL1        0.1004
     22 C         142.5949  137.9853  157.6847 C.3     1  UNL1        0.0737
     23 C         141.1341  137.6872  157.5190 C.3     1  UNL1        0.0361
     24 C         140.1092  138.5944  158.1327 C.3     1  UNL1        0.0925
     25 N         139.9717  138.6699  159.6244 N.3     1  UNL1       -0.1830
     26 H         140.8310  139.0902  159.9784 H       1  UNL1        0.1484
     27 S         138.8332  139.4322  160.2350 S.O2    1  UNL1        0.0450
     28 O         138.5668  140.0920  158.9145 O.2     1  UNL1       -0.1572
     29 O         139.0996  138.7725  161.5555 O.2     1  UNL1       -0.1572
     30 C         137.6948  140.1945  160.8456 C.3     1  UNL1        0.1952
     31 C         137.9713  141.3373  161.7771 C.ar    1  UNL1        0.0029
     32 C         138.9479  142.4058  161.3840 C.ar    1  UNL1       -0.0025
     33 C         139.2244  143.5486  162.3155 C.ar    1  UNL1       -0.0003
     34 C         138.5245  143.6227  163.6400 C.ar    1  UNL1       -0.0000
     35 C         137.5479  142.5542  164.0331 C.ar    1  UNL1       -0.0003
     36 C         137.2714  141.4114  163.1016 C.ar    1  UNL1       -0.0025
@<TRIPOS>BOND
     1    20    21    3
     2    21    14    1
     3    14    15   ar
     4    15    16   ar
     5    16    17   ar
     6    17    13    1
     7    13    12    1
     8    12    11    1
     9    11    10    1
    10    10     1    1
    11     1     2    1
    12     2     3    1
    13     3     4    1
    14     4     5    1
    15     5    22    1
    16    22    23    1
    17    23    24    1
    18    24    25    1
    19    25    27    1
    20    27    28    2
    21    27    29    2
    22    27    30    1
    23    30    31    1
    24    31    32   ar
    25    32    33   ar
    26    33    34   ar
    27    34    35   ar
    28    35    36   ar
    29     5     6    1
    30     6     7    1
    31     7     8    1
    32     7     9    1
    33    17    18   ar
    34    18    19   ar
    35    19    14   ar
    36     8     1    1
    37     9     3    1
    38    36    31   ar
    39    25    26    1
@<TRIPOS>MOLECULE
*****
 36 39 0 0 0
SMALL
GASTEIGER

@<TRIPOS>ATOM
      1 N         144.6043  141.8679  162.8455 N.3     1  UNL1       -0.2684
      2 C         144.8165  141.6574  161.3756 C.3     1  UNL1        0.1035
      3 C         144.0088  142.4384  160.3818 C.3     1  UNL1        0.1470
      4 C         143.2011  143.2194  159.3880 C.3     1  UNL1        0.1035
      5 N         142.1811  144.2109  159.8641 N.3     1  UNL1       -0.2685
      6 C         141.9689  144.4214  161.3341 C.3     1  UNL1        0.1035
      7 C         142.7766  143.6404  162.3278 C.3     1  UNL1        0.1470
      8 C         143.5844  142.8594  163.3216 C.3     1  UNL1        0.1035
      9 O         142.9889  143.4299  160.8579 O.3     1  UNL1       -0.3530
     10 C         145.4120  141.0869  163.8393 C.3     1  UNL1        0.0761
     11 C         145.0540  139.6623  164.1428 C.3     1  UNL1        0.0646
     12 C         144.0636  139.3522  165.2258 C.3     1  UNL1        0.2068
     13 O         142.6574  139.8645  165.1254 O.3     1  UNL1       -0.4754
     14 C         140.7325  141.8631  168.6680 C.ar    1  UNL1        0.0686
     15 C         142.1054  142.2768  168.2279 C.ar    1  UNL1        0.0134
     16 C         142.7471  141.6107  167.0471 C.ar    1  UNL1        0.0376
     17 C         142.0157  140.5307  166.3062 C.ar    1  UNL1        0.1386
     18 C         140.6427  140.1169  166.7463 C.ar    1  UNL1        0.0376
     19 C         140.0011  140.7831  167.9272 C.ar    1  UNL1        0.0134
     20 N         139.4491  143.1955  171.0298 N.1     1  UNL1       -0.1908
     21 C         140.0908  142.5292  169.8489 C.1     1  UNL1        0.1004
     22 C         141.3734  144.9919  158.8703 C.3     1  UNL1        0.0737
     23 C         140.3998  144.2853  157.9743 C.3     1  UNL1        0.0361
     24 C         139.3134  143.4379  158.5673 C.3     1  UNL1        0.0925
     25 N         139.6589  142.3434  159.5331 N.3     1  UNL1       -0.1830
     26 H         140.6312  142.4872  159.8056 H       1  UNL1        0.1484
     27 S         138.8726  142.1859  160.8008 S.O2    1  UNL1        0.0450
     28 O         139.2226  140.7278  160.8367 O.2     1  UNL1       -0.1572
     29 O         138.5226  143.6440  160.7649 O.2     1  UNL1       -0.1572
     30 C         138.0863  142.0284  162.0684 C.3     1  UNL1        0.1952
     31 C         138.4630  142.8170  163.2875 C.ar    1  UNL1        0.0029
     32 C         139.7953  142.5973  163.9408 C.ar    1  UNL1       -0.0025
     33 C         140.1720  143.3858  165.1599 C.ar    1  UNL1       -0.0003
     34 C         139.2165  144.3941  165.7258 C.ar    1  UNL1       -0.0000
     35 C         137.8842  144.6138  165.0725 C.ar    1  UNL1       -0.0003
     36 C         137.5075  143.8252  163.8534 C.ar    1  UNL1       -0.0025
@<TRIPOS>BOND
     1    20    21    3
     2    21    14    1
     3    14    15   ar
     4    15    16   ar
     5    16    17   ar
     6    17    13    1
     7    13    12    1
     8    12    11    1
     9    11    10    1
    10    10     1    1
    11     1     2    1
    12     2     3    1
    13     3     4    1
    14     4     5    1
    15     5    22    1
    16    22    23    1
    17    23    24    1
    18    24    25    1
    19    25    27    1
    20    27    28    2
    21    27    29    2
    22    27    30    1
    23    30    31    1
    24    31    32   ar
    25    32    33   ar
    26    33    34   ar
    27    34    35   ar
    28    35    36   ar
    29     5     6    1
    30     6     7    1
    31     7     8    1
    32     7     9    1
    33    17    18   ar
    34    18    19   ar
    35    19    14   ar
    36     8     1    1
    37     9     3    1
    38    36    31   ar
    39    25    26    1
@<TRIPOS>MOLECULE
*****
 36 39 0 0 0
SMALL
GASTEIGER

@<TRIPOS>ATOM
      1 N         144.2274  141.1478  163.8778 N.3     1  UNL1       -0.2684
      2 C         144.0608  142.3587  164.7473 C.3     1  UNL1        0.1035
      3 C         143.5233  142.2136  166.1401 C.3     1  UNL1        0.1470
      4 C         142.9857  142.0685  167.5330 C.3     1  UNL1        0.1035
      5 N         142.6148  140.7126  168.0563 N.3     1  UNL1       -0.2685
      6 C         142.7814  139.5017  167.1867 C.3     1  UNL1        0.1035
      7 C         143.3189  139.6468  165.7939 C.3     1  UNL1        0.1470
      8 C         143.8564  139.7919  164.4011 C.3     1  UNL1        0.1035
      9 O         143.1523  140.8576  166.6634 O.3     1  UNL1       -0.3530
     10 C         144.7649  141.2929  162.4849 C.3     1  UNL1        0.0761
     11 C         143.8244  141.5108  161.3369 C.3     1  UNL1        0.0646
     12 C         144.0705  142.6287  160.3674 C.3     1  UNL1        0.2068
     13 O         143.0911  143.7598  160.2625 O.3     1  UNL1       -0.4754
     14 C         140.2305  144.5793  163.6383 C.ar    1  UNL1        0.0686
     15 C         141.6395  145.0890  163.7087 C.ar    1  UNL1        0.0134
     16 C         142.5930  144.8159  162.5835 C.ar    1  UNL1        0.0376
     17 C         142.1375  144.0330  161.3877 C.ar    1  UNL1        0.1386
     18 C         140.7286  143.5232  161.3173 C.ar    1  UNL1        0.0376
     19 C         139.7751  143.7964  162.4426 C.ar    1  UNL1        0.0134
     20 N         138.3235  145.1255  165.8888 N.1     1  UNL1       -0.1908
     21 C         139.2770  144.8524  164.7635 C.1     1  UNL1        0.1004
     22 C         142.0773  140.5675  169.4491 C.3     1  UNL1        0.0737
     23 C         140.7879  139.8375  169.6832 C.3     1  UNL1        0.0361
     24 C         139.5711  140.1877  168.8790 C.3     1  UNL1        0.0925
     25 N         139.7096  140.9937  167.6216 N.3     1  UNL1       -0.1830
     26 H         140.7034  141.1934  167.5078 H       1  UNL1        0.1484
     27 S         139.2278  140.4349  166.3156 S.O2    1  UNL1        0.0450
     28 O         139.9645  141.5158  165.5815 O.2     1  UNL1       -0.1572
     29 O         138.4912  139.3540  167.0497 O.2     1  UNL1       -0.1572
     30 C         138.7462  139.8762  165.0096 C.3     1  UNL1        0.1952
     31 C         139.7003  139.1535  164.1054 C.ar    1  UNL1        0.0029
     32 C         140.0927  139.7598  162.7907 C.ar    1  UNL1       -0.0025
     33 C         141.0468  139.0371  161.8866 C.ar    1  UNL1       -0.0003
     34 C         141.6085  137.7083  162.2972 C.ar    1  UNL1       -0.0000
     35 C         141.2161  137.1021  163.6118 C.ar    1  UNL1       -0.0003
     36 C         140.2620  137.8247  164.5160 C.ar    1  UNL1       -0.0025
@<TRIPOS>BOND
     1    20    21    3
     2    21    14    1
     3    14    15   ar
     4    15    16   ar
     5    16    17   ar
     6    17    13    1
     7    13    12    1
     8    12    11    1
     9    11    10    1
    10    10     1    1
    11     1     2    1
    12     2     3    1
    13     3     4    1
    14     4     5    1
    15     5    22    1
    16    22    23    1
    17    23    24    1
    18    24    25    1
    19    25    27    1
    20    27    28    2
    21    27    29    2
    22    27    30    1
    23    30    31    1
    24    31    32   ar
    25    32    33   ar
    26    33    34   ar
    27    34    35   ar
    28    35    36   ar
    29     5     6    1
    30     6     7    1
    31     7     8    1
    32     7     9    1
    33    17    18   ar
    34    18    19   ar
    35    19    14   ar
    36     8     1    1
    37     9     3    1
    38    36    31   ar
    39    25    26    1
@<TRIPOS>MOLECULE
*****
 36 39 0 0 0
SMALL
GASTEIGER

@<TRIPOS>ATOM
      1 N         139.0875  138.9304  162.2509 N.3     1  UNL1       -0.2684
      2 C         137.9519  139.8967  162.0875 C.3     1  UNL1        0.1035
      3 C         138.1526  141.1658  161.3136 C.3     1  UNL1        0.1470
      4 C         138.3532  142.4350  160.5396 C.3     1  UNL1        0.1035
      5 N         139.6894  142.7378  159.9290 N.3     1  UNL1       -0.2685
      6 C         140.8250  141.7715  160.0924 C.3     1  UNL1        0.1035
      7 C         140.6244  140.5024  160.8664 C.3     1  UNL1        0.1470
      8 C         140.4237  139.2332  161.6403 C.3     1  UNL1        0.1035
      9 O         139.4888  141.4686  160.7030 O.3     1  UNL1       -0.3530
     10 C         138.8868  137.6612  163.0249 C.3     1  UNL1        0.0761
     11 C         138.9671  137.6755  164.5226 C.3     1  UNL1        0.0646
     12 C         139.8116  138.7014  165.2188 C.3     1  UNL1        0.2068
     13 O         139.1604  139.8304  165.9611 O.3     1  UNL1       -0.4754
     14 C         141.5208  142.2033  168.9691 C.ar    1  UNL1        0.0686
     15 C         141.0093  142.8669  167.7249 C.ar    1  UNL1        0.0134
     16 C         140.2225  142.0760  166.7222 C.ar    1  UNL1        0.0376
     17 C         139.9472  140.6214  166.9637 C.ar    1  UNL1        0.1386
     18 C         140.4587  139.9577  168.2079 C.ar    1  UNL1        0.0376
     19 C         141.2455  140.7487  169.2106 C.ar    1  UNL1        0.0134
     20 N         143.0944  143.7851  170.9744 N.1     1  UNL1       -0.1908
     21 C         142.3076  142.9942  169.9717 C.1     1  UNL1        0.1004
     22 C         139.8901  144.0069  159.1551 C.3     1  UNL1        0.0737
     23 C         140.3438  145.2512  159.8594 C.3     1  UNL1        0.0361
     24 C         140.7274  145.1953  161.3084 C.3     1  UNL1        0.0925
     25 N         142.1750  145.1635  161.7002 N.3     1  UNL1       -0.1830
     26 H         142.4808  146.1336  161.7764 H       1  UNL1        0.1484
     27 S         142.5945  144.4766  162.9661 S.O2    1  UNL1        0.0450
     28 O         141.1897  143.9912  163.1681 O.2     1  UNL1       -0.1572
     29 O         143.9993  144.9620  162.7640 O.2     1  UNL1       -0.1572
     30 C         143.0139  143.7897  164.2318 C.3     1  UNL1        0.1952
     31 C         143.5826  142.4027  164.1795 C.ar    1  UNL1        0.0029
     32 C         142.6670  141.2150  164.2105 C.ar    1  UNL1       -0.0025
     33 C         143.2358  139.8279  164.1582 C.ar    1  UNL1       -0.0003
     34 C         144.7201  139.6286  164.0748 C.ar    1  UNL1       -0.0000
     35 C         145.6357  140.8163  164.0437 C.ar    1  UNL1       -0.0003
     36 C         145.0669  142.2034  164.0960 C.ar    1  UNL1       -0.0025
@<TRIPOS>BOND
     1    20    21    3
     2    21    14    1
     3    14    15   ar
     4    15    16   ar
     5    16    17   ar
     6    17    13    1
     7    13    12    1
     8    12    11    1
     9    11    10    1
    10    10     1    1
    11     1     2    1
    12     2     3    1
    13     3     4    1
    14     4     5    1
    15     5    22    1
    16    22    23    1
    17    23    24    1
    18    24    25    1
    19    25    27    1
    20    27    28    2
    21    27    29    2
    22    27    30    1
    23    30    31    1
    24    31    32   ar
    25    32    33   ar
    26    33    34   ar
    27    34    35   ar
    28    35    36   ar
    29     5     6    1
    30     6     7    1
    31     7     8    1
    32     7     9    1
    33    17    18   ar
    34    18    19   ar
    35    19    14   ar
    36     8     1    1
    37     9     3    1
    38    36    31   ar
    39    25    26    1
@<TRIPOS>MOLECULE
*****
 36 39 0 0 0
SMALL
GASTEIGER

@<TRIPOS>ATOM
      1 N         139.4657  137.9962  163.8625 N.3     1  UNL1       -0.2684
      2 C         138.7891  138.8719  162.8500 C.3     1  UNL1        0.1035
      3 C         139.5901  139.5051  161.7512 C.3     1  UNL1        0.1470
      4 C         140.3912  140.1384  160.6524 C.3     1  UNL1        0.1035
      5 N         141.8690  139.8959  160.5662 N.3     1  UNL1       -0.2685
      6 C         142.5457  139.0201  161.5788 C.3     1  UNL1        0.1035
      7 C         141.7446  138.3869  162.6775 C.3     1  UNL1        0.1470
      8 C         140.9435  137.7537  163.7763 C.3     1  UNL1        0.1035
      9 O         141.0679  139.2626  161.6650 O.3     1  UNL1       -0.3530
     10 C         138.6646  137.3629  164.9613 C.3     1  UNL1        0.0761
     11 C         138.3065  138.1576  166.1820 C.3     1  UNL1        0.0646
     12 C         138.3474  139.6565  166.1399 C.3     1  UNL1        0.2068
     13 O         139.4706  140.3951  166.8054 O.3     1  UNL1       -0.4754
     14 C         143.3151  141.1209  164.5821 C.ar    1  UNL1        0.0686
     15 C         143.3086  140.2531  165.8056 C.ar    1  UNL1        0.0134
     16 C         142.0271  140.0112  166.5467 C.ar    1  UNL1        0.0376
     17 C         140.7521  140.6370  166.0643 C.ar    1  UNL1        0.1386
     18 C         140.7586  141.5048  164.8408 C.ar    1  UNL1        0.0376
     19 C         142.0402  141.7467  164.0997 C.ar    1  UNL1        0.0134
     20 N         145.8782  141.6047  163.1000 N.1     1  UNL1       -0.1908
     21 C         144.5966  141.3628  163.8411 C.1     1  UNL1        0.1004
     22 C         142.6701  140.5291  159.4675 C.3     1  UNL1        0.0737
     23 C         143.4905  141.7534  159.7472 C.3     1  UNL1        0.0361
     24 C         143.0304  142.7461  160.7733 C.3     1  UNL1        0.0925
     25 N         142.5785  144.1111  160.3463 N.3     1  UNL1       -0.1830
     26 H         142.3824  144.0571  159.3468 H       1  UNL1        0.1484
     27 S         141.3777  144.7390  160.9898 S.O2    1  UNL1        0.0450
     28 O         140.6548  144.7028  159.6761 O.2     1  UNL1       -0.1572
     29 O         142.1006  144.7752  162.3036 O.2     1  UNL1       -0.1572
     30 C         140.1770  145.3668  161.6333 C.3     1  UNL1        0.1952
     31 C         139.2974  144.5524  162.5349 C.ar    1  UNL1        0.0029
     32 C         139.0978  144.9671  163.9625 C.ar    1  UNL1       -0.0025
     33 C         138.2182  144.1527  164.8642 C.ar    1  UNL1       -0.0003
     34 C         137.5381  142.9235  164.3383 C.ar    1  UNL1       -0.0000
     35 C         137.7377  142.5088  162.9107 C.ar    1  UNL1       -0.0003
     36 C         138.6173  143.3232  162.0090 C.ar    1  UNL1       -0.0025
@<TRIPOS>BOND
     1    20    21    3
     2    21    14    1
     3    14    15   ar
     4    15    16   ar
     5    16    17   ar
     6    17    13    1
     7    13    12    1
     8    12    11    1
     9    11    10    1
    10    10     1    1
    11     1     2    1
    12     2     3    1
    13     3     4    1
    14     4     5    1
    15     5    22    1
    16    22    23    1
    17    23    24    1
    18    24    25    1
    19    25    27    1
    20    27    28    2
    21    27    29    2
    22    27    30    1
    23    30    31    1
    24    31    32   ar
    25    32    33   ar
    26    33    34   ar
    27    34    35   ar
    28    35    36   ar
    29     5     6    1
    30     6     7    1
    31     7     8    1
    32     7     9    1
    33    17    18   ar
    34    18    19   ar
    35    19    14   ar
    36     8     1    1
    37     9     3    1
    38    36    31   ar
    39    25    26    1
