@<TRIPOS>MOLECULE
*****
 50 54 0 0 0
SMALL
GASTEIGER

@<TRIPOS>ATOM
      1 C         140.5939  142.3756  158.9536 C.ar    1  UNL1        0.0021
      2 C         139.6410  142.3934  157.7953 C.ar    1  UNL1       -0.0002
      3 C         139.3920  143.6701  157.0484 C.ar    1  UNL1        0.0038
      4 C         140.0960  144.9292  157.4598 C.ar    1  UNL1        0.0712
      5 C         141.0490  144.9115  158.6181 C.ar    1  UNL1        0.0012
      6 C         141.2979  143.6346  159.3650 C.ar    1  UNL1       -0.0021
      7 C         141.7283  140.0433  159.1074 C.ar    1  UNL1        0.2248
      8 N         141.9772  138.7666  159.8543 N.ar    1  UNL1       -0.2101
      9 C         141.3406  138.5453  161.1944 C.ar    1  UNL1        0.1020
     10 C         140.4551  139.6008  161.7875 C.ar    1  UNL1        0.0191
     11 C         140.2062  140.8775  161.0406 C.ar    1  UNL1        0.0062
     12 C         140.8428  141.0988  159.7005 C.ar    1  UNL1        0.0530
     13 C         139.8185  139.3795  163.1276 C.ar    1  UNL1       -0.0025
     14 C         138.7886  140.3437  163.6370 C.ar    1  UNL1       -0.0002
     15 C         138.1520  140.1224  164.9771 C.ar    1  UNL1        0.0011
     16 C         138.5453  138.9370  165.8077 C.ar    1  UNL1        0.0137
     17 C         139.5753  137.9728  165.2983 C.ar    1  UNL1       -0.0031
     18 C         140.2119  138.1941  163.9582 C.ar    1  UNL1       -0.0218
     19 C         141.2419  137.2298  163.4488 C.3     1  UNL1        0.0310
     20 C         137.9087  138.7157  167.1478 C.2     1  UNL1        0.0729
     21 O         136.7237  137.8048  167.2740 O.co2   1  UNL1       -0.5446
     22 O         138.4572  139.4053  168.3617 O.co2   1  UNL1       -0.5446
     23 C         143.7368  140.8645  157.6786 C.3     1  UNL1        0.2542
     24 O         142.3649  140.2646  157.7673 O.3     1  UNL1       -0.4561
     25 C         139.8471  146.2059  156.7129 C.3     1  UNL1        0.4186
     26 F         139.5982  147.4827  155.9660 F       1  UNL1       -0.1659
     27 F         140.0719  145.4900  155.4141 F       1  UNL1       -0.1659
     28 F         139.6223  146.9219  158.0116 F       1  UNL1       -0.1659
     29 C         142.2508  143.6169  160.5233 C.3     1  UNL1        0.1235
     30 N         141.7259  143.5163  161.9249 N.am    1  UNL1       -0.2396
     31 C         140.6491  144.3700  162.5264 C.2     1  UNL1        0.4054
     32 O         139.9083  145.4741  161.8321 O.2     1  UNL1       -0.2262
     33 O         140.4433  143.9257  163.9443 O.3     1  UNL1       -0.4320
     34 C         141.3928  142.7974  164.2189 C.3     1  UNL1        0.2107
     35 C         142.1855  142.5444  162.9709 C.3     1  UNL1        0.1232
     36 C         143.2508  141.5025  162.7989 C.3     1  UNL1        0.0258
     37 C         141.5263  142.0529  165.5142 C.ar    1  UNL1        0.0189
     38 C         140.8817  142.5896  166.7578 C.ar    1  UNL1        0.0031
     39 C         141.0152  141.8451  168.0530 C.ar    1  UNL1        0.0712
     40 C         141.7932  140.5637  168.1048 C.ar    1  UNL1        0.0077
     41 C         142.4378  140.0268  166.8613 C.ar    1  UNL1        0.0712
     42 C         142.3043  140.7715  165.5660 C.ar    1  UNL1        0.0031
     43 C         140.3706  142.3820  169.2965 C.3     1  UNL1        0.4186
     44 F         139.7260  142.9188  170.5400 F       1  UNL1       -0.1659
     45 F         140.1336  143.6931  168.6076 F       1  UNL1       -0.1659
     46 F         140.6076  141.0707  169.9855 F       1  UNL1       -0.1659
     47 C         143.2158  138.7454  166.9131 C.3     1  UNL1        0.4186
     48 F         143.9938  137.4640  166.9649 F       1  UNL1       -0.1659
     49 F         143.4787  138.8454  165.4397 F       1  UNL1       -0.1659
     50 F         142.9530  138.6454  168.3865 F       1  UNL1       -0.1659
@<TRIPOS>UNITY_ATOM_ATTR
21 1
charge -1
@<TRIPOS>BOND
     1    23    24    1
     2    24     7    1
     3     7     8   ar
     4     8     9   ar
     5     9    10   ar
     6    10    13    1
     7    13    14   ar
     8    14    15   ar
     9    15    16   ar
    10    16    20    1
    11    20    21   ar
    12    20    22   ar
    13    16    17   ar
    14    17    18   ar
    15    18    19    1
    16    10    11   ar
    17    11    12   ar
    18    12     1    1
    19     1     2   ar
    20     2     3   ar
    21     3     4   ar
    22     4    25    1
    23    25    26    1
    24    25    27    1
    25    25    28    1
    26     4     5   ar
    27     5     6   ar
    28     6    29    1
    29    29    30    1
    30    30    31   am
    31    31    32    2
    32    31    33    1
    33    33    34    1
    34    34    37    1
    35    37    38   ar
    36    38    39   ar
    37    39    43    1
    38    43    44    1
    39    43    45    1
    40    43    46    1
    41    39    40   ar
    42    40    41   ar
    43    41    47    1
    44    47    48    1
    45    47    49    1
    46    47    50    1
    47    41    42   ar
    48    34    35    1
    49    35    36    1
    50    12     7   ar
    51     6     1   ar
    52    35    30    1
    53    18    13   ar
    54    42    37   ar
@<TRIPOS>MOLECULE
*****
 50 54 0 0 0
SMALL
GASTEIGER

@<TRIPOS>ATOM
      1 C         140.5750  142.3165  158.9226 C.ar    1  UNL1        0.0021
      2 C         139.6256  142.3444  157.7616 C.ar    1  UNL1       -0.0002
      3 C         139.3912  143.6241  157.0151 C.ar    1  UNL1        0.0038
      4 C         140.1063  144.8760  157.4295 C.ar    1  UNL1        0.0712
      5 C         141.0558  144.8480  158.5904 C.ar    1  UNL1        0.0012
      6 C         141.2901  143.5682  159.3370 C.ar    1  UNL1       -0.0021
      7 C         141.6672  139.9636  159.0673 C.ar    1  UNL1        0.2248
      8 N         141.9015  138.6839  159.8138 N.ar    1  UNL1       -0.2101
      9 C         141.2779  138.4773  161.1623 C.ar    1  UNL1        0.1020
     10 C         140.4200  139.5504  161.7642 C.ar    1  UNL1        0.0191
     11 C         140.1857  140.8301  161.0177 C.ar    1  UNL1        0.0062
     12 C         140.8093  141.0367  159.6692 C.ar    1  UNL1        0.0530
     13 C         139.7963  139.3438  163.1127 C.ar    1  UNL1       -0.0025
     14 C         138.7474  140.2950  163.6076 C.ar    1  UNL1       -0.0002
     15 C         138.1237  140.0884  164.9561 C.ar    1  UNL1        0.0011
     16 C         138.5491  138.9307  165.8097 C.ar    1  UNL1        0.0137
     17 C         139.5980  137.9795  165.3148 C.ar    1  UNL1       -0.0031
     18 C         140.2217  138.1861  163.9663 C.ar    1  UNL1       -0.0218
     19 C         141.2707  137.2348  163.4715 C.3     1  UNL1        0.0310
     20 C         137.9254  138.7241  167.1582 C.2     1  UNL1        0.0729
     21 O         138.4768  139.4378  168.3567 O.co2   1  UNL1       -0.5446
     22 O         136.7505  137.8038  167.3081 O.co2   1  UNL1       -0.5446
     23 C         143.7025  140.6662  157.6134 C.3     1  UNL1        0.2542
     24 O         142.2909  140.1701  157.7188 O.3     1  UNL1       -0.4561
     25 C         139.8720  146.1557  156.6829 C.3     1  UNL1        0.4186
     26 F         139.6377  147.4354  155.9363 F       1  UNL1       -0.1659
     27 F         139.6193  146.8659  157.9797 F       1  UNL1       -0.1659
     28 F         140.1247  145.4454  155.3861 F       1  UNL1       -0.1659
     29 C         142.2395  143.5403  160.4980 C.3     1  UNL1        0.1235
     30 N         141.7094  143.4506  161.8983 N.am    1  UNL1       -0.2396
     31 C         140.6182  144.2972  162.4838 C.2     1  UNL1        0.4054
     32 O         139.8657  145.3819  161.7718 O.2     1  UNL1       -0.2262
     33 O         140.4118  143.8685  163.9064 O.3     1  UNL1       -0.4320
     34 C         141.3754  142.7570  164.2000 C.3     1  UNL1        0.2107
     35 C         142.1773  142.4988  162.9590 C.3     1  UNL1        0.1232
     36 C         143.2575  141.4694  162.8055 C.3     1  UNL1        0.0258
     37 C         141.5129  142.0312  165.5055 C.ar    1  UNL1        0.0189
     38 C         142.2933  140.7520  165.5739 C.ar    1  UNL1        0.0031
     39 C         142.4308  140.0262  166.8793 C.ar    1  UNL1        0.0712
     40 C         141.7879  140.5796  168.1165 C.ar    1  UNL1        0.0077
     41 C         141.0074  141.8588  168.0481 C.ar    1  UNL1        0.0712
     42 C         140.8700  142.5845  166.7426 C.ar    1  UNL1        0.0031
     43 C         143.2111  138.7470  166.9477 C.3     1  UNL1        0.4186
     44 F         143.9915  137.4679  167.0161 F       1  UNL1       -0.1659
     45 F         142.9064  138.6394  168.4125 F       1  UNL1       -0.1659
     46 F         143.5159  138.8546  165.4829 F       1  UNL1       -0.1659
     47 C         140.3646  142.4122  169.2852 C.3     1  UNL1        0.4186
     48 F         139.7217  142.9655  170.5224 F       1  UNL1       -0.1659
     49 F         140.6206  141.1171  169.9975 F       1  UNL1       -0.1659
     50 F         140.1085  143.7072  168.5729 F       1  UNL1       -0.1659
@<TRIPOS>UNITY_ATOM_ATTR
21 1
charge -1
@<TRIPOS>BOND
     1    23    24    1
     2    24     7    1
     3     7     8   ar
     4     8     9   ar
     5     9    10   ar
     6    10    13    1
     7    13    14   ar
     8    14    15   ar
     9    15    16   ar
    10    16    20    1
    11    20    21   ar
    12    20    22   ar
    13    16    17   ar
    14    17    18   ar
    15    18    19    1
    16    10    11   ar
    17    11    12   ar
    18    12     1    1
    19     1     2   ar
    20     2     3   ar
    21     3     4   ar
    22     4    25    1
    23    25    26    1
    24    25    27    1
    25    25    28    1
    26     4     5   ar
    27     5     6   ar
    28     6    29    1
    29    29    30    1
    30    30    31   am
    31    31    32    2
    32    31    33    1
    33    33    34    1
    34    34    37    1
    35    37    38   ar
    36    38    39   ar
    37    39    43    1
    38    43    44    1
    39    43    45    1
    40    43    46    1
    41    39    40   ar
    42    40    41   ar
    43    41    47    1
    44    47    48    1
    45    47    49    1
    46    47    50    1
    47    41    42   ar
    48    34    35    1
    49    35    36    1
    50    12     7   ar
    51     6     1   ar
    52    35    30    1
    53    18    13   ar
    54    42    37   ar
@<TRIPOS>MOLECULE
*****
 50 54 0 0 0
SMALL
GASTEIGER

@<TRIPOS>ATOM
      1 C         140.4887  142.3317  158.8727 C.ar    1  UNL1        0.0021
      2 C         139.5125  142.3822  157.7349 C.ar    1  UNL1       -0.0002
      3 C         139.2792  143.6708  157.0035 C.ar    1  UNL1        0.0038
      4 C         140.0221  144.9090  157.4098 C.ar    1  UNL1        0.0712
      5 C         140.9983  144.8585  158.5476 C.ar    1  UNL1        0.0012
      6 C         141.2316  143.5698  159.2790 C.ar    1  UNL1       -0.0021
      7 C         141.5487  139.9618  158.9738 C.ar    1  UNL1        0.2248
      8 N         141.7819  138.6733  159.7053 N.ar    1  UNL1       -0.2101
      9 C         141.1883  138.4658  161.0671 C.ar    1  UNL1        0.1020
     10 C         140.3615  139.5470  161.6975 C.ar    1  UNL1        0.0191
     11 C         140.1283  140.8356  160.9660 C.ar    1  UNL1        0.0062
     12 C         140.7219  141.0430  159.6042 C.ar    1  UNL1        0.0530
     13 C         139.7679  139.3395  163.0593 C.ar    1  UNL1       -0.0025
     14 C         140.2176  138.1858  163.9057 C.ar    1  UNL1       -0.0002
     15 C         139.6240  137.9783  165.2675 C.ar    1  UNL1        0.0011
     16 C         138.5806  138.9247  165.7830 C.ar    1  UNL1        0.0137
     17 C         138.1309  140.0785  164.9366 C.ar    1  UNL1       -0.0031
     18 C         138.7245  140.2859  163.5748 C.ar    1  UNL1       -0.0218
     19 C         138.2747  141.4398  162.7283 C.3     1  UNL1        0.0310
     20 C         137.9870  138.7172  167.1448 C.2     1  UNL1        0.0729
     21 O         138.5335  139.4672  168.3233 O.co2   1  UNL1       -0.5446
     22 O         136.8469  137.7599  167.3281 O.co2   1  UNL1       -0.5446
     23 C         141.8188  139.2163  156.4997 C.3     1  UNL1        0.2542
     24 O         142.1423  140.1693  157.6120 O.3     1  UNL1       -0.4561
     25 C         139.7889  146.1976  156.6783 C.3     1  UNL1        0.4186
     26 F         139.5556  147.4862  155.9469 F       1  UNL1       -0.1659
     27 F         139.6611  146.9178  157.9879 F       1  UNL1       -0.1659
     28 F         139.9167  145.4774  155.3688 F       1  UNL1       -0.1659
     29 C         142.2077  143.5193  160.4168 C.3     1  UNL1        0.1235
     30 N         141.7095  143.4515  161.8301 N.am    1  UNL1       -0.2396
     31 C         140.6683  144.3417  162.4414 C.2     1  UNL1        0.4054
     32 O         139.9426  145.4557  161.7469 O.2     1  UNL1       -0.2262
     33 O         140.4802  143.9221  163.8693 O.3     1  UNL1       -0.4320
     34 C         141.4052  142.7726  164.1403 C.3     1  UNL1        0.2107
     35 C         142.1649  142.4819  162.8800 C.3     1  UNL1        0.1232
     36 C         143.1985  141.4097  162.7010 C.3     1  UNL1        0.0258
     37 C         141.5457  142.0423  165.4428 C.ar    1  UNL1        0.0189
     38 C         142.3181  140.7578  165.5030 C.ar    1  UNL1        0.0031
     39 C         142.4586  140.0274  166.8055 C.ar    1  UNL1        0.0712
     40 C         141.8268  140.5815  168.0480 C.ar    1  UNL1        0.0077
     41 C         141.0545  141.8660  167.9880 C.ar    1  UNL1        0.0712
     42 C         140.9140  142.5964  166.6853 C.ar    1  UNL1        0.0031
     43 C         143.2309  138.7430  166.8656 C.3     1  UNL1        0.4186
     44 F         144.0032  137.4585  166.9257 F       1  UNL1       -0.1659
     45 F         143.4953  138.8330  165.3919 F       1  UNL1       -0.1659
     46 F         142.9666  138.6529  168.3395 F       1  UNL1       -0.1659
     47 C         140.4227  142.4201  169.2305 C.3     1  UNL1        0.4186
     48 F         139.7909  142.9742  170.4730 F       1  UNL1       -0.1659
     49 F         140.1156  143.6966  168.5051 F       1  UNL1       -0.1659
     50 F         140.7298  141.1436  169.9559 F       1  UNL1       -0.1659
@<TRIPOS>UNITY_ATOM_ATTR
21 1
charge -1
@<TRIPOS>BOND
     1    23    24    1
     2    24     7    1
     3     7     8   ar
     4     8     9   ar
     5     9    10   ar
     6    10    13    1
     7    13    14   ar
     8    14    15   ar
     9    15    16   ar
    10    16    20    1
    11    20    21   ar
    12    20    22   ar
    13    16    17   ar
    14    17    18   ar
    15    18    19    1
    16    10    11   ar
    17    11    12   ar
    18    12     1    1
    19     1     2   ar
    20     2     3   ar
    21     3     4   ar
    22     4    25    1
    23    25    26    1
    24    25    27    1
    25    25    28    1
    26     4     5   ar
    27     5     6   ar
    28     6    29    1
    29    29    30    1
    30    30    31   am
    31    31    32    2
    32    31    33    1
    33    33    34    1
    34    34    37    1
    35    37    38   ar
    36    38    39   ar
    37    39    43    1
    38    43    44    1
    39    43    45    1
    40    43    46    1
    41    39    40   ar
    42    40    41   ar
    43    41    47    1
    44    47    48    1
    45    47    49    1
    46    47    50    1
    47    41    42   ar
    48    34    35    1
    49    35    36    1
    50    12     7   ar
    51     6     1   ar
    52    35    30    1
    53    18    13   ar
    54    42    37   ar
@<TRIPOS>MOLECULE
*****
 50 54 0 0 0
SMALL
GASTEIGER

@<TRIPOS>ATOM
      1 C         141.6957  142.3133  158.6165 C.ar    1  UNL1        0.0021
      2 C         142.6119  143.4925  158.4746 C.ar    1  UNL1       -0.0002
      3 C         142.0672  144.8157  158.0249 C.ar    1  UNL1        0.0038
      4 C         140.6061  144.9598  157.7170 C.ar    1  UNL1        0.0712
      5 C         139.6899  143.7806  157.8589 C.ar    1  UNL1        0.0012
      6 C         140.2348  142.4574  158.3086 C.ar    1  UNL1       -0.0021
      7 C         142.6080  139.9468  158.0531 C.ar    1  UNL1        0.2248
      8 N         143.1528  138.6236  158.5029 N.ar    1  UNL1       -0.2101
      9 C         143.3301  138.3437  159.9659 C.ar    1  UNL1        0.1020
     10 C         142.9626  139.3870  160.9790 C.ar    1  UNL1        0.0191
     11 C         142.4178  140.7102  160.5292 C.ar    1  UNL1        0.0062
     12 C         142.2405  140.9901  159.0663 C.ar    1  UNL1        0.0530
     13 C         143.1399  139.1071  162.4420 C.ar    1  UNL1       -0.0025
     14 C         142.3127  138.0482  163.1086 C.ar    1  UNL1       -0.0002
     15 C         142.4900  137.7683  164.5716 C.ar    1  UNL1        0.0011
     16 C         143.4946  138.5472  165.3678 C.ar    1  UNL1        0.0137
     17 C         144.3218  139.6060  164.7012 C.ar    1  UNL1       -0.0031
     18 C         144.1445  139.8859  163.2382 C.ar    1  UNL1       -0.0218
     19 C         144.9719  140.9448  162.5716 C.3     1  UNL1        0.0310
     20 C         143.6719  138.2673  166.8308 C.2     1  UNL1        0.0729
     21 O         144.5051  137.1022  167.2759 O.co2   1  UNL1       -0.5446
     22 O         143.0159  139.1525  167.8487 O.co2   1  UNL1       -0.5446
     23 C         141.4320  139.4422  155.7921 C.3     1  UNL1        0.2542
     24 O         142.4307  140.2267  156.5902 O.3     1  UNL1       -0.4561
     25 C         140.0614  146.2830  157.2673 C.3     1  UNL1        0.4186
     26 F         139.5166  147.6062  156.8175 F       1  UNL1       -0.1659
     27 F         139.6067  146.5717  158.6672 F       1  UNL1       -0.1659
     28 F         140.5161  145.9944  155.8673 F       1  UNL1       -0.1659
     29 C         139.3186  141.2782  158.4505 C.3     1  UNL1        0.1235
     30 N         139.3694  140.4337  159.6892 N.am    1  UNL1       -0.2396
     31 C         139.4306  138.9356  159.7329 C.2     1  UNL1        0.4054
     32 O         139.4518  138.0189  158.5458 O.2     1  UNL1       -0.2262
     33 O         139.4670  138.5150  161.1724 O.3     1  UNL1       -0.4320
     34 C         139.4282  139.7532  162.0182 C.3     1  UNL1        0.2107
     35 C         139.3679  140.9390  161.1015 C.3     1  UNL1        0.1232
     36 C         139.3153  142.3776  161.5231 C.3     1  UNL1        0.0258
     37 C         139.4465  139.7978  163.5173 C.ar    1  UNL1        0.0189
     38 C         140.2804  140.8230  164.2271 C.ar    1  UNL1        0.0031
     39 C         140.2987  140.8675  165.7263 C.ar    1  UNL1        0.0712
     40 C         139.4831  139.8870  166.5158 C.ar    1  UNL1        0.0077
     41 C         138.6492  138.8618  165.8061 C.ar    1  UNL1        0.0712
     42 C         138.6309  138.8173  164.3068 C.ar    1  UNL1        0.0031
     43 C         141.1326  141.8927  166.4360 C.3     1  UNL1        0.4186
     44 F         141.9665  142.9178  167.1457 F       1  UNL1       -0.1659
     45 F         142.0821  141.9239  165.2752 F       1  UNL1       -0.1659
     46 F         140.1830  141.8615  167.5968 F       1  UNL1       -0.1659
     47 C         137.8336  137.8812  166.5956 C.3     1  UNL1        0.4186
     48 F         137.0181  136.9007  167.3851 F       1  UNL1       -0.1659
     49 F         138.2638  136.7801  165.6724 F       1  UNL1       -0.1659
     50 F         137.4034  138.9824  167.5188 F       1  UNL1       -0.1659
@<TRIPOS>UNITY_ATOM_ATTR
21 1
charge -1
@<TRIPOS>BOND
     1    23    24    1
     2    24     7    1
     3     7     8   ar
     4     8     9   ar
     5     9    10   ar
     6    10    13    1
     7    13    14   ar
     8    14    15   ar
     9    15    16   ar
    10    16    20    1
    11    20    21   ar
    12    20    22   ar
    13    16    17   ar
    14    17    18   ar
    15    18    19    1
    16    10    11   ar
    17    11    12   ar
    18    12     1    1
    19     1     2   ar
    20     2     3   ar
    21     3     4   ar
    22     4    25    1
    23    25    26    1
    24    25    27    1
    25    25    28    1
    26     4     5   ar
    27     5     6   ar
    28     6    29    1
    29    29    30    1
    30    30    31   am
    31    31    32    2
    32    31    33    1
    33    33    34    1
    34    34    37    1
    35    37    38   ar
    36    38    39   ar
    37    39    43    1
    38    43    44    1
    39    43    45    1
    40    43    46    1
    41    39    40   ar
    42    40    41   ar
    43    41    47    1
    44    47    48    1
    45    47    49    1
    46    47    50    1
    47    41    42   ar
    48    34    35    1
    49    35    36    1
    50    12     7   ar
    51     6     1   ar
    52    35    30    1
    53    18    13   ar
    54    42    37   ar
@<TRIPOS>MOLECULE
*****
 50 54 0 0 0
SMALL
GASTEIGER

@<TRIPOS>ATOM
      1 C         141.9196  143.0120  159.0969 C.ar    1  UNL1        0.0021
      2 C         142.8578  143.8806  158.3125 C.ar    1  UNL1       -0.0002
      3 C         142.3190  145.0061  157.4802 C.ar    1  UNL1        0.0038
      4 C         140.8419  145.2630  157.4321 C.ar    1  UNL1        0.0712
      5 C         139.9037  144.3944  158.2164 C.ar    1  UNL1        0.0012
      6 C         140.4426  143.2688  159.0489 C.ar    1  UNL1       -0.0021
      7 C         142.9367  140.6274  159.2689 C.ar    1  UNL1        0.2248
      8 N         143.4755  139.5020  160.1013 N.ar    1  UNL1       -0.2101
      9 C         143.5362  139.6356  161.5942 C.ar    1  UNL1        0.1020
     10 C         143.0579  140.8946  162.2546 C.ar    1  UNL1        0.0191
     11 C         142.5191  142.0200  161.4221 C.ar    1  UNL1        0.0062
     12 C         142.4585  141.8864  159.9293 C.ar    1  UNL1        0.0530
     13 C         143.1186  141.0281  163.7474 C.ar    1  UNL1       -0.0025
     14 C         143.5969  142.3076  164.3671 C.ar    1  UNL1       -0.0002
     15 C         143.6575  142.4412  165.8599 C.ar    1  UNL1        0.0011
     16 C         143.2398  141.2952  166.7330 C.ar    1  UNL1        0.0137
     17 C         142.7615  140.0157  166.1133 C.ar    1  UNL1       -0.0031
     18 C         142.7009  139.8822  164.6205 C.ar    1  UNL1       -0.0218
     19 C         142.2226  138.6026  164.0008 C.3     1  UNL1        0.0310
     20 C         143.3005  141.4288  168.2258 C.2     1  UNL1        0.0729
     21 O         143.0501  140.2334  169.0965 O.co2   1  UNL1       -0.5446
     22 O         143.6115  142.7578  168.8479 O.co2   1  UNL1       -0.5446
     23 C         144.1425  140.3664  156.9825 C.3     1  UNL1        0.2542
     24 O         142.8760  140.4939  157.7761 O.3     1  UNL1       -0.4561
     25 C         140.3031  146.3885  156.5997 C.3     1  UNL1        0.4186
     26 F         139.7643  147.5140  155.7673 F       1  UNL1       -0.1659
     27 F         139.5493  146.9068  157.7884 F       1  UNL1       -0.1659
     28 F         141.0569  145.8702  155.4110 F       1  UNL1       -0.1659
     29 C         139.5043  142.4002  159.8332 C.3     1  UNL1        0.1235
     30 N         139.3896  142.5707  161.3191 N.am    1  UNL1       -0.2396
     31 C         139.2575  143.8744  162.0493 C.2     1  UNL1        0.4054
     32 O         139.2170  145.2363  161.4219 O.2     1  UNL1       -0.2262
     33 O         139.1730  143.5770  163.5172 O.3     1  UNL1       -0.4320
     34 C         139.2530  142.0895  163.6940 C.3     1  UNL1        0.2107
     35 C         139.3868  141.4677  162.3356 C.3     1  UNL1        0.1232
     36 C         139.4982  140.0004  162.0446 C.3     1  UNL1        0.0258
     37 C         139.2071  141.3533  165.0000 C.ar    1  UNL1        0.0189
     38 C         138.6612  139.9572  165.0553 C.ar    1  UNL1        0.0031
     39 C         138.6154  139.2209  166.3613 C.ar    1  UNL1        0.0712
     40 C         139.1154  139.8807  167.6122 C.ar    1  UNL1        0.0077
     41 C         139.6613  141.2768  167.5570 C.ar    1  UNL1        0.0712
     42 C         139.7071  142.0130  166.2509 C.ar    1  UNL1        0.0031
     43 C         138.0695  137.8249  166.4165 C.3     1  UNL1        0.4186
     44 F         137.5236  136.4289  166.4717 F       1  UNL1       -0.1659
     45 F         139.0659  137.3944  165.3812 F       1  UNL1       -0.1659
     46 F         137.0730  138.2554  167.4518 F       1  UNL1       -0.1659
     47 C         140.1613  141.9366  168.8079 C.3     1  UNL1        0.4186
     48 F         140.6613  142.5963  170.0588 F       1  UNL1       -0.1659
     49 F         140.4637  143.1827  168.0297 F       1  UNL1       -0.1659
     50 F         139.8588  140.6904  169.5861 F       1  UNL1       -0.1659
@<TRIPOS>UNITY_ATOM_ATTR
21 1
charge -1
@<TRIPOS>BOND
     1    23    24    1
     2    24     7    1
     3     7     8   ar
     4     8     9   ar
     5     9    10   ar
     6    10    13    1
     7    13    14   ar
     8    14    15   ar
     9    15    16   ar
    10    16    20    1
    11    20    21   ar
    12    20    22   ar
    13    16    17   ar
    14    17    18   ar
    15    18    19    1
    16    10    11   ar
    17    11    12   ar
    18    12     1    1
    19     1     2   ar
    20     2     3   ar
    21     3     4   ar
    22     4    25    1
    23    25    26    1
    24    25    27    1
    25    25    28    1
    26     4     5   ar
    27     5     6   ar
    28     6    29    1
    29    29    30    1
    30    30    31   am
    31    31    32    2
    32    31    33    1
    33    33    34    1
    34    34    37    1
    35    37    38   ar
    36    38    39   ar
    37    39    43    1
    38    43    44    1
    39    43    45    1
    40    43    46    1
    41    39    40   ar
    42    40    41   ar
    43    41    47    1
    44    47    48    1
    45    47    49    1
    46    47    50    1
    47    41    42   ar
    48    34    35    1
    49    35    36    1
    50    12     7   ar
    51     6     1   ar
    52    35    30    1
    53    18    13   ar
    54    42    37   ar
@<TRIPOS>MOLECULE
*****
 50 54 0 0 0
SMALL
GASTEIGER

@<TRIPOS>ATOM
      1 C         141.9068  143.0587  159.0801 C.ar    1  UNL1        0.0021
      2 C         142.8408  143.9361  158.3006 C.ar    1  UNL1       -0.0002
      3 C         142.2966  145.0632  157.4740 C.ar    1  UNL1        0.0038
      4 C         140.8182  145.3129  157.4268 C.ar    1  UNL1        0.0712
      5 C         139.8842  144.4355  158.2063 C.ar    1  UNL1        0.0012
      6 C         140.4285  143.3083  159.0329 C.ar    1  UNL1       -0.0021
      7 C         142.9358  140.6784  159.2399 C.ar    1  UNL1        0.2248
      8 N         143.4801  139.5513  160.0665 N.ar    1  UNL1       -0.2101
      9 C         143.5397  139.6773  161.5600 C.ar    1  UNL1        0.1020
     10 C         143.0551  140.9305  162.2269 C.ar    1  UNL1        0.0191
     11 C         142.5108  142.0575  161.4002 C.ar    1  UNL1        0.0062
     12 C         142.4511  141.9315  159.9067 C.ar    1  UNL1        0.0530
     13 C         143.1147  141.0565  163.7204 C.ar    1  UNL1       -0.0025
     14 C         143.5942  142.3323  164.3468 C.ar    1  UNL1       -0.0002
     15 C         143.6539  142.4584  165.8403 C.ar    1  UNL1        0.0011
     16 C         143.2340  141.3087  166.7074 C.ar    1  UNL1        0.0137
     17 C         142.7546  140.0329  166.0810 C.ar    1  UNL1       -0.0031
     18 C         142.6949  139.9068  164.5875 C.ar    1  UNL1       -0.0218
     19 C         142.2154  138.6310  163.9610 C.3     1  UNL1        0.0310
     20 C         143.2937  141.4347  168.2009 C.2     1  UNL1        0.0729
     21 O         143.0820  140.2268  169.0646 O.co2   1  UNL1       -0.5446
     22 O         143.5651  142.7687  168.8307 O.co2   1  UNL1       -0.5446
     23 C         142.1176  139.4205  157.1189 C.3     1  UNL1        0.2542
     24 O         142.8761  140.5523  157.7464 O.3     1  UNL1       -0.4561
     25 C         140.2740  146.4400  156.6002 C.3     1  UNL1        0.4186
     26 F         139.7297  147.5672  155.7735 F       1  UNL1       -0.1659
     27 F         141.0277  145.9297  155.4080 F       1  UNL1       -0.1659
     28 F         139.5202  146.9504  157.7923 F       1  UNL1       -0.1659
     29 C         139.4945  142.4308  159.8124 C.3     1  UNL1        0.1235
     30 N         139.3815  142.5902  161.2997 N.am    1  UNL1       -0.2396
     31 C         139.2483  143.8882  162.0397 C.2     1  UNL1        0.4054
     32 O         139.2047  145.2546  161.4224 O.2     1  UNL1       -0.2262
     33 O         139.1664  143.5798  163.5054 O.3     1  UNL1       -0.4320
     34 C         139.2489  142.0912  163.6712 C.3     1  UNL1        0.2107
     35 C         139.3819  141.4797  162.3080 C.3     1  UNL1        0.1232
     36 C         139.4953  140.0148  162.0061 C.3     1  UNL1        0.0258
     37 C         139.2061  141.3453  164.9718 C.ar    1  UNL1        0.0189
     38 C         139.6972  142.0003  166.2287 C.ar    1  UNL1        0.0031
     39 C         139.6543  141.2543  167.5293 C.ar    1  UNL1        0.0712
     40 C         139.1204  139.8533  167.5731 C.ar    1  UNL1        0.0077
     41 C         138.6293  139.1981  166.3162 C.ar    1  UNL1        0.0712
     42 C         138.6722  139.9442  165.0156 C.ar    1  UNL1        0.0031
     43 C         140.1454  141.9094  168.7861 C.3     1  UNL1        0.4186
     44 F         140.6364  142.5645  170.0430 F       1  UNL1       -0.1659
     45 F         140.3935  143.1793  168.0273 F       1  UNL1       -0.1659
     46 F         139.8972  140.6395  169.5450 F       1  UNL1       -0.1659
     47 C         138.0954  137.7971  166.3599 C.3     1  UNL1        0.4186
     48 F         137.5614  136.3960  166.4037 F       1  UNL1       -0.1659
     49 F         137.1439  138.1937  167.4496 F       1  UNL1       -0.1659
     50 F         139.0468  137.4004  165.2703 F       1  UNL1       -0.1659
@<TRIPOS>UNITY_ATOM_ATTR
21 1
charge -1
@<TRIPOS>BOND
     1    23    24    1
     2    24     7    1
     3     7     8   ar
     4     8     9   ar
     5     9    10   ar
     6    10    13    1
     7    13    14   ar
     8    14    15   ar
     9    15    16   ar
    10    16    20    1
    11    20    21   ar
    12    20    22   ar
    13    16    17   ar
    14    17    18   ar
    15    18    19    1
    16    10    11   ar
    17    11    12   ar
    18    12     1    1
    19     1     2   ar
    20     2     3   ar
    21     3     4   ar
    22     4    25    1
    23    25    26    1
    24    25    27    1
    25    25    28    1
    26     4     5   ar
    27     5     6   ar
    28     6    29    1
    29    29    30    1
    30    30    31   am
    31    31    32    2
    32    31    33    1
    33    33    34    1
    34    34    37    1
    35    37    38   ar
    36    38    39   ar
    37    39    43    1
    38    43    44    1
    39    43    45    1
    40    43    46    1
    41    39    40   ar
    42    40    41   ar
    43    41    47    1
    44    47    48    1
    45    47    49    1
    46    47    50    1
    47    41    42   ar
    48    34    35    1
    49    35    36    1
    50    12     7   ar
    51     6     1   ar
    52    35    30    1
    53    18    13   ar
    54    42    37   ar
@<TRIPOS>MOLECULE
*****
 50 54 0 0 0
SMALL
GASTEIGER

@<TRIPOS>ATOM
      1 C         142.0980  141.4732  158.8883 C.ar    1  UNL1        0.0021
      2 C         142.7966  140.3621  158.1621 C.ar    1  UNL1       -0.0002
      3 C         144.1877  140.5659  157.6395 C.ar    1  UNL1        0.0038
      4 C         144.8803  141.8808  157.8431 C.ar    1  UNL1        0.0712
      5 C         144.1817  142.9919  158.5693 C.ar    1  UNL1        0.0012
      6 C         142.7905  142.7880  159.0919 C.ar    1  UNL1       -0.0021
      7 C         139.5262  141.5355  158.5248 C.ar    1  UNL1        0.2248
      8 N         138.1351  141.3317  159.0474 N.ar    1  UNL1       -0.2101
      9 C         137.9245  140.8617  160.4563 C.ar    1  UNL1        0.1020
     10 C         139.1051  140.5955  161.3424 C.ar    1  UNL1        0.0191
     11 C         140.4962  140.7993  160.8198 C.ar    1  UNL1        0.0062
     12 C         140.7068  141.2693  159.4110 C.ar    1  UNL1        0.0530
     13 C         138.8946  140.1255  162.7512 C.ar    1  UNL1       -0.0025
     14 C         138.1548  140.9908  163.7279 C.ar    1  UNL1       -0.0002
     15 C         137.9443  140.5208  165.1367 C.ar    1  UNL1        0.0011
     16 C         138.4735  139.1855  165.5689 C.ar    1  UNL1        0.0137
     17 C         139.2133  138.3202  164.5922 C.ar    1  UNL1       -0.0031
     18 C         139.4238  138.7902  163.1834 C.ar    1  UNL1       -0.0218
     19 C         140.1636  137.9248  162.2067 C.3     1  UNL1        0.0310
     20 C         138.2630  138.7155  166.9777 C.2     1  UNL1        0.0729
     21 O         137.3222  137.5811  167.2572 O.co2   1  UNL1       -0.5446
     22 O         138.9932  139.3798  168.1070 O.co2   1  UNL1       -0.5446
     23 C         139.4749  143.4380  156.7562 C.3     1  UNL1        0.2542
     24 O         139.7367  142.0055  157.1160 O.3     1  UNL1       -0.4561
     25 C         146.2714  142.0845  157.3204 C.3     1  UNL1        0.4186
     26 F         147.6626  142.2883  156.7978 F       1  UNL1       -0.1659
     27 F         146.0440  141.0119  156.2969 F       1  UNL1       -0.1659
     28 F         146.4989  143.1571  158.3440 F       1  UNL1       -0.1659
     29 C         142.0919  143.8991  159.8182 C.3     1  UNL1        0.1235
     30 N         141.5186  143.6588  161.1834 N.am    1  UNL1       -0.2396
     31 C         140.2024  144.1703  161.6893 C.2     1  UNL1        0.4054
     32 O         139.2284  145.0119  160.9191 O.2     1  UNL1       -0.2262
     33 O         140.0311  143.6925  163.1009 O.3     1  UNL1       -0.4320
     34 C         141.2415  142.8857  163.4672 C.3     1  UNL1        0.2107
     35 C         142.1608  142.8649  162.2821 C.3     1  UNL1        0.1232
     36 C         143.4890  142.1719  162.2086 C.3     1  UNL1        0.0258
     37 C         141.4891  142.2172  164.7869 C.ar    1  UNL1        0.0189
     38 C         142.1175  140.8559  164.8319 C.ar    1  UNL1        0.0031
     39 C         142.3651  140.1873  166.1516 C.ar    1  UNL1        0.0712
     40 C         141.9844  140.8800  167.4264 C.ar    1  UNL1        0.0077
     41 C         141.3560  142.2414  167.3815 C.ar    1  UNL1        0.0712
     42 C         141.1084  142.9099  166.0617 C.ar    1  UNL1        0.0031
     43 C         142.9935  138.8260  166.1965 C.3     1  UNL1        0.4186
     44 F         143.6219  137.4648  166.2414 F       1  UNL1       -0.1659
     45 F         143.2377  138.9873  167.6677 F       1  UNL1       -0.1659
     46 F         142.7493  138.6647  164.7252 F       1  UNL1       -0.1659
     47 C         140.9752  142.9341  168.6563 C.3     1  UNL1        0.4186
     48 F         140.5944  143.6268  169.9312 F       1  UNL1       -0.1659
     49 F         142.0046  142.1342  169.3984 F       1  UNL1       -0.1659
     50 F         139.9458  143.7339  167.9143 F       1  UNL1       -0.1659
@<TRIPOS>UNITY_ATOM_ATTR
21 1
charge -1
@<TRIPOS>BOND
     1    23    24    1
     2    24     7    1
     3     7     8   ar
     4     8     9   ar
     5     9    10   ar
     6    10    13    1
     7    13    14   ar
     8    14    15   ar
     9    15    16   ar
    10    16    20    1
    11    20    21   ar
    12    20    22   ar
    13    16    17   ar
    14    17    18   ar
    15    18    19    1
    16    10    11   ar
    17    11    12   ar
    18    12     1    1
    19     1     2   ar
    20     2     3   ar
    21     3     4   ar
    22     4    25    1
    23    25    26    1
    24    25    27    1
    25    25    28    1
    26     4     5   ar
    27     5     6   ar
    28     6    29    1
    29    29    30    1
    30    30    31   am
    31    31    32    2
    32    31    33    1
    33    33    34    1
    34    34    37    1
    35    37    38   ar
    36    38    39   ar
    37    39    43    1
    38    43    44    1
    39    43    45    1
    40    43    46    1
    41    39    40   ar
    42    40    41   ar
    43    41    47    1
    44    47    48    1
    45    47    49    1
    46    47    50    1
    47    41    42   ar
    48    34    35    1
    49    35    36    1
    50    12     7   ar
    51     6     1   ar
    52    35    30    1
    53    18    13   ar
    54    42    37   ar
@<TRIPOS>MOLECULE
*****
 50 54 0 0 0
SMALL
GASTEIGER

@<TRIPOS>ATOM
      1 C         140.3409  141.8679  158.7189 C.ar    1  UNL1        0.0021
      2 C         141.2850  141.9492  157.5561 C.ar    1  UNL1       -0.0002
      3 C         141.4328  143.2354  156.7986 C.ar    1  UNL1        0.0038
      4 C         140.6365  144.4403  157.2038 C.ar    1  UNL1        0.0712
      5 C         139.6924  144.3589  158.3666 C.ar    1  UNL1        0.0012
      6 C         139.5446  143.0727  159.1241 C.ar    1  UNL1       -0.0021
      7 C         139.3535  139.4727  158.9150 C.ar    1  UNL1        0.2248
      8 N         139.2058  138.1866  159.6726 N.ar    1  UNL1       -0.2101
      9 C         139.8976  138.0094  160.9916 C.ar    1  UNL1        0.1020
     10 C         140.7373  139.1183  161.5531 C.ar    1  UNL1        0.0191
     11 C         140.8850  140.4044  160.7955 C.ar    1  UNL1        0.0062
     12 C         140.1931  140.5816  159.4765 C.ar    1  UNL1        0.0530
     13 C         141.4291  138.9410  162.8722 C.ar    1  UNL1       -0.0025
     14 C         141.1383  137.7352  163.7156 C.ar    1  UNL1       -0.0002
     15 C         141.8302  137.5580  165.0346 C.ar    1  UNL1        0.0011
     16 C         142.8129  138.5865  165.5103 C.ar    1  UNL1        0.0137
     17 C         143.1037  139.7924  164.6669 C.ar    1  UNL1       -0.0031
     18 C         142.4118  139.9696  163.3478 C.ar    1  UNL1       -0.0218
     19 C         142.7027  141.1755  162.5044 C.3     1  UNL1        0.0310
     20 C         143.5047  138.4093  166.8293 C.2     1  UNL1        0.0729
     21 O         143.0613  139.2041  168.0216 O.co2   1  UNL1       -0.5446
     22 O         144.6400  137.4372  166.9561 O.co2   1  UNL1       -0.5446
     23 C         139.2144  138.9948  156.3651 C.3     1  UNL1        0.2542
     24 O         138.6617  139.6500  157.5959 O.3     1  UNL1       -0.4561
     25 C         140.7843  145.7264  156.4462 C.3     1  UNL1        0.4186
     26 F         140.9321  147.0126  155.6887 F       1  UNL1       -0.1659
     27 F         139.2917  145.8493  156.3637 F       1  UNL1       -0.1659
     28 F         142.2770  145.6035  156.5288 F       1  UNL1       -0.1659
     29 C         138.6005  142.9914  160.2869 C.3     1  UNL1        0.1235
     30 N         139.1374  142.9345  161.6864 N.am    1  UNL1       -0.2396
     31 C         140.1339  143.8810  162.2875 C.2     1  UNL1        0.4054
     32 O         140.7684  145.0504  161.5948 O.2     1  UNL1       -0.2262
     33 O         140.3845  143.4526  163.7031 O.3     1  UNL1       -0.4320
     34 C         139.5429  142.2414  163.9768 C.3     1  UNL1        0.2107
     35 C         138.7722  141.9213  162.7304 C.3     1  UNL1        0.1232
     36 C         137.8059  140.7870  162.5582 C.3     1  UNL1        0.0258
     37 C         139.4826  141.4836  165.2697 C.ar    1  UNL1        0.0189
     38 C         140.1885  142.0127  166.4829 C.ar    1  UNL1        0.0031
     39 C         140.1282  141.2548  167.7759 C.ar    1  UNL1        0.0712
     40 C         139.3620  139.9678  167.8559 C.ar    1  UNL1        0.0077
     41 C         138.6560  139.4386  166.6427 C.ar    1  UNL1        0.0712
     42 C         138.7164  140.1965  165.3497 C.ar    1  UNL1        0.0031
     43 C         140.8341  141.7840  168.9890 C.3     1  UNL1        0.4186
     44 F         141.5400  142.3131  170.2022 F       1  UNL1       -0.1659
     45 F         139.6432  141.4381  169.8329 F       1  UNL1       -0.1659
     46 F         142.0251  142.1299  168.1452 F       1  UNL1       -0.1659
     47 C         137.8899  138.1515  166.7226 C.3     1  UNL1        0.4186
     48 F         137.1237  136.8644  166.8026 F       1  UNL1       -0.1659
     49 F         137.1754  138.6526  167.9427 F       1  UNL1       -0.1659
     50 F         138.6043  137.6504  165.5026 F       1  UNL1       -0.1659
@<TRIPOS>UNITY_ATOM_ATTR
21 1
charge -1
@<TRIPOS>BOND
     1    23    24    1
     2    24     7    1
     3     7     8   ar
     4     8     9   ar
     5     9    10   ar
     6    10    13    1
     7    13    14   ar
     8    14    15   ar
     9    15    16   ar
    10    16    20    1
    11    20    21   ar
    12    20    22   ar
    13    16    17   ar
    14    17    18   ar
    15    18    19    1
    16    10    11   ar
    17    11    12   ar
    18    12     1    1
    19     1     2   ar
    20     2     3   ar
    21     3     4   ar
    22     4    25    1
    23    25    26    1
    24    25    27    1
    25    25    28    1
    26     4     5   ar
    27     5     6   ar
    28     6    29    1
    29    29    30    1
    30    30    31   am
    31    31    32    2
    32    31    33    1
    33    33    34    1
    34    34    37    1
    35    37    38   ar
    36    38    39   ar
    37    39    43    1
    38    43    44    1
    39    43    45    1
    40    43    46    1
    41    39    40   ar
    42    40    41   ar
    43    41    47    1
    44    47    48    1
    45    47    49    1
    46    47    50    1
    47    41    42   ar
    48    34    35    1
    49    35    36    1
    50    12     7   ar
    51     6     1   ar
    52    35    30    1
    53    18    13   ar
    54    42    37   ar
@<TRIPOS>MOLECULE
*****
 50 54 0 0 0
SMALL
GASTEIGER

@<TRIPOS>ATOM
      1 C         140.3298  141.8937  158.7515 C.ar    1  UNL1        0.0021
      2 C         141.2408  141.9282  157.5603 C.ar    1  UNL1       -0.0002
      3 C         141.4272  143.2050  156.7954 C.ar    1  UNL1        0.0038
      4 C         140.7025  144.4473  157.2217 C.ar    1  UNL1        0.0712
      5 C         139.7916  144.4128  158.4128 C.ar    1  UNL1        0.0012
      6 C         139.6052  143.1359  159.1778 C.ar    1  UNL1       -0.0021
      7 C         139.2514  139.5404  158.9730 C.ar    1  UNL1        0.2248
      8 N         139.0650  138.2636  159.7379 N.ar    1  UNL1       -0.2101
      9 C         139.7708  138.0633  161.0462 C.ar    1  UNL1        0.1020
     10 C         140.6629  139.1398  161.5896 C.ar    1  UNL1        0.0191
     11 C         140.8492  140.4165  160.8247 C.ar    1  UNL1        0.0062
     12 C         140.1435  140.6169  159.5164 C.ar    1  UNL1        0.0530
     13 C         141.3687  138.9395  162.8980 C.ar    1  UNL1       -0.0025
     14 C         140.9990  137.7843  163.7804 C.ar    1  UNL1       -0.0002
     15 C         141.7048  137.5840  165.0888 C.ar    1  UNL1        0.0011
     16 C         142.7803  138.5389  165.5146 C.ar    1  UNL1        0.0137
     17 C         143.1500  139.6940  164.6322 C.ar    1  UNL1       -0.0031
     18 C         142.4442  139.8943  163.3238 C.ar    1  UNL1       -0.0218
     19 C         142.8140  141.0496  162.4414 C.3     1  UNL1        0.0310
     20 C         143.4861  138.3385  166.8230 C.2     1  UNL1        0.0729
     21 O         144.5812  137.3198  166.9361 O.co2   1  UNL1       -0.5446
     22 O         143.0967  139.1570  168.0182 O.co2   1  UNL1       -0.5446
     23 C         137.3430  140.6341  157.5903 C.3     1  UNL1        0.2542
     24 O         138.5456  139.7407  157.6646 O.3     1  UNL1       -0.4561
     25 C         140.8889  145.7241  156.4568 C.3     1  UNL1        0.4186
     26 F         141.0753  147.0008  155.6919 F       1  UNL1       -0.1659
     27 F         140.0697  146.4556  157.4783 F       1  UNL1       -0.1659
     28 F         141.7082  144.9925  155.4352 F       1  UNL1       -0.1659
     29 C         138.6942  143.1014  160.3689 C.3     1  UNL1        0.1235
     30 N         139.2701  143.0129  161.7512 N.am    1  UNL1       -0.2396
     31 C         140.3652  143.8742  162.3068 C.2     1  UNL1        0.4054
     32 O         141.0768  144.9752  161.5779 O.2     1  UNL1       -0.2262
     33 O         140.6239  143.4412  163.7196 O.3     1  UNL1       -0.4320
     34 C         139.6885  142.3122  164.0369 C.3     1  UNL1        0.2107
     35 C         138.8519  142.0475  162.8204 C.3     1  UNL1        0.1232
     36 C         137.7844  141.0012  162.6951 C.3     1  UNL1        0.0258
     37 C         139.6046  141.5770  165.3416 C.ar    1  UNL1        0.0189
     38 C         138.7896  140.3220  165.4444 C.ar    1  UNL1        0.0031
     39 C         138.7057  139.5868  166.7491 C.ar    1  UNL1        0.0712
     40 C         139.4369  140.1067  167.9512 C.ar    1  UNL1        0.0077
     41 C         140.2520  141.3617  167.8486 C.ar    1  UNL1        0.0712
     42 C         140.3358  142.0969  166.5438 C.ar    1  UNL1        0.0031
     43 C         137.8906  138.3318  166.8518 C.3     1  UNL1        0.4186
     44 F         137.0755  137.0768  166.9545 F       1  UNL1       -0.1659
     45 F         138.3763  137.9057  165.4981 F       1  UNL1       -0.1659
     46 F         137.4049  138.7580  168.2056 F       1  UNL1       -0.1659
     47 C         140.9832  141.8816  169.0507 C.3     1  UNL1        0.4186
     48 F         141.7144  142.4014  170.2529 F       1  UNL1       -0.1659
     49 F         139.7754  141.6169  169.8999 F       1  UNL1       -0.1659
     50 F         142.1910  142.1463  168.2016 F       1  UNL1       -0.1659
@<TRIPOS>UNITY_ATOM_ATTR
21 1
charge -1
@<TRIPOS>BOND
     1    23    24    1
     2    24     7    1
     3     7     8   ar
     4     8     9   ar
     5     9    10   ar
     6    10    13    1
     7    13    14   ar
     8    14    15   ar
     9    15    16   ar
    10    16    20    1
    11    20    21   ar
    12    20    22   ar
    13    16    17   ar
    14    17    18   ar
    15    18    19    1
    16    10    11   ar
    17    11    12   ar
    18    12     1    1
    19     1     2   ar
    20     2     3   ar
    21     3     4   ar
    22     4    25    1
    23    25    26    1
    24    25    27    1
    25    25    28    1
    26     4     5   ar
    27     5     6   ar
    28     6    29    1
    29    29    30    1
    30    30    31   am
    31    31    32    2
    32    31    33    1
    33    33    34    1
    34    34    37    1
    35    37    38   ar
    36    38    39   ar
    37    39    43    1
    38    43    44    1
    39    43    45    1
    40    43    46    1
    41    39    40   ar
    42    40    41   ar
    43    41    47    1
    44    47    48    1
    45    47    49    1
    46    47    50    1
    47    41    42   ar
    48    34    35    1
    49    35    36    1
    50    12     7   ar
    51     6     1   ar
    52    35    30    1
    53    18    13   ar
    54    42    37   ar
