@<TRIPOS>MOLECULE
*****
 43 48 0 0 0
SMALL
GASTEIGER

@<TRIPOS>ATOM
      1 N         141.5728  138.6689  157.1395 N.am    1  UNL1       -0.2717
      2 C         142.8321  139.4190  156.8211 C.3     1  UNL1        0.0990
      3 C         143.6179  140.5060  157.4928 C.3     1  UNL1        0.0776
      4 C         144.7826  140.7620  156.5830 C.3     1  UNL1        0.1011
      5 N         145.7991  141.8051  156.9415 N.3     1  UNL1       -0.1552
      6 C         145.6510  142.5922  158.2097 C.3     1  UNL1        0.0995
      7 C         144.4863  142.3361  159.1196 C.3     1  UNL1        0.0627
      8 C         143.4697  141.2930  158.7611 C.3     1  UNL1        0.1704
      9 O         142.4744  141.3192  159.8831 O.3     1  UNL1       -0.4776
     10 C         141.2150  140.5691  160.2014 C.ar    1  UNL1        0.1560
     11 C         140.7460  141.1352  161.5088 C.ar    1  UNL1        0.0849
     12 C         139.4911  140.6144  162.1446 C.ar    1  UNL1        0.0178
     13 C         138.7054  139.5274  161.4729 C.ar    1  UNL1        0.0016
     14 C         139.1745  138.9613  160.1654 C.ar    1  UNL1        0.0077
     15 C         140.4293  139.4821  159.5297 C.ar    1  UNL1        0.0887
     16 C         140.5774  138.6951  158.2614 C.2     1  UNL1        0.2523
     17 O         139.4706  137.7009  158.0702 O.2     1  UNL1       -0.2698
     18 N         141.5317  142.2221  162.1806 N.am    1  UNL1       -0.2816
     19 C         142.5022  141.8810  163.2722 C.2     1  UNL1        0.2257
     20 O         142.6871  140.4529  163.6921 O.2     1  UNL1       -0.2748
     21 H         141.4103  143.1594  161.9050 H       1  UNL1        0.1549
     22 C         143.2879  142.9681  163.9440 C.3     1  UNL1        0.0768
     23 C         143.6850  144.4109  164.0454 C.3     1  UNL1        0.0096
     24 C         144.2516  143.4078  165.0060 C.3     1  UNL1        0.0096
     25 S         146.9639  142.0612  156.0316 S.O2    1  UNL1        0.0633
     26 O         147.6466  142.8320  157.1224 O.2     1  UNL1       -0.1528
     27 O         146.2813  141.2904  154.9408 O.2     1  UNL1       -0.1528
     28 C         148.1286  142.3172  155.1218 C.ar    1  UNL1        0.1222
     29 C         149.4447  141.6458  155.3810 C.ar    1  UNL1        0.0208
     30 C         150.6094  141.9018  154.4711 C.ar    1  UNL1        0.0128
     31 C         150.4581  142.8294  153.3020 C.ar    1  UNL1        0.0578
     32 CL        151.6228  143.0854  152.3922 Cl      1  UNL1       -0.0822
     33 C         149.1421  143.5008  153.0428 C.ar    1  UNL1        0.0128
     34 C         147.9774  143.2448  153.9526 C.ar    1  UNL1        0.0208
     35 C         141.2277  137.6547  156.0895 C.3     1  UNL1        0.1204
     36 C         142.8840  133.4796  156.3637 C.ar    1  UNL1        0.1387
     37 C         143.4563  134.5711  157.2188 C.ar    1  UNL1        0.0366
     38 C         142.9041  135.9628  157.1274 C.ar    1  UNL1        0.0005
     39 C         141.7798  136.2631  156.1809 C.ar    1  UNL1       -0.0021
     40 C         141.2076  135.1715  155.3258 C.ar    1  UNL1        0.0005
     41 C         141.7597  133.7798  155.4172 C.ar    1  UNL1        0.0366
     42 C         144.9198  131.8676  156.4465 C.3     1  UNL1        0.2525
     43 O         143.4361  132.0879  156.4550 O.3     1  UNL1       -0.4714
@<TRIPOS>BOND
     1    42    43    1
     2    43    36    1
     3    36    37   ar
     4    37    38   ar
     5    38    39   ar
     6    39    35    1
     7    35     1    1
     8     1     2    1
     9     3     2    1
    10     3     4    1
    11     4     5    1
    12     5    25    1
    13    25    26    2
    14    25    27    2
    15    25    28    1
    16    28    29   ar
    17    29    30   ar
    18    30    31   ar
    19    31    32    1
    20    31    33   ar
    21    33    34   ar
    22     5     6    1
    23     6     7    1
    24     8     7    1
    25     8     9    1
    26     9    10    1
    27    10    11   ar
    28    11    18    1
    29    18    19   am
    30    19    20    2
    31    19    22    1
    32    22    23    1
    33    23    24    1
    34    11    12   ar
    35    12    13   ar
    36    13    14   ar
    37    14    15   ar
    38    15    16    1
    39    16    17    2
    40    39    40   ar
    41    40    41   ar
    42    41    36   ar
    43    16     1   am
    44     8     3    1
    45    15    10   ar
    46    34    28   ar
    47    24    22    1
    48    18    21    1
@<TRIPOS>MOLECULE
*****
 43 48 0 0 0
SMALL
GASTEIGER

@<TRIPOS>ATOM
      1 N         140.8913  143.9446  160.2473 N.am    1  UNL1       -0.2717
      2 C         140.8761  142.5950  159.5927 C.3     1  UNL1        0.0990
      3 C         140.3565  141.2392  159.9695 C.3     1  UNL1        0.0776
      4 C         140.7030  140.3544  158.8089 C.3     1  UNL1        0.1011
      5 N         140.3301  138.9018  158.8357 N.3     1  UNL1       -0.1552
      6 C         139.6105  138.3340  160.0231 C.3     1  UNL1        0.0995
      7 C         139.2640  139.2188  161.1837 C.3     1  UNL1        0.0627
      8 C         139.6369  140.6714  161.1568 C.3     1  UNL1        0.1704
      9 O         139.1389  141.2242  162.4593 O.3     1  UNL1       -0.4776
     10 C         139.1541  142.5738  163.1139 C.ar    1  UNL1        0.1560
     11 C         138.4631  142.3746  164.4302 C.ar    1  UNL1        0.0849
     12 C         138.2915  143.5312  165.3698 C.ar    1  UNL1        0.0178
     13 C         138.8111  144.8870  164.9931 C.ar    1  UNL1        0.0016
     14 C         139.5022  145.0861  163.6767 C.ar    1  UNL1        0.0077
     15 C         139.6737  143.9296  162.7372 C.ar    1  UNL1        0.0887
     16 C         140.3933  144.4974  161.5498 C.2     1  UNL1        0.2523
     17 O         140.6827  145.9615  161.7002 O.2     1  UNL1       -0.2698
     18 N         137.9435  141.0189  164.8070 N.am    1  UNL1       -0.2816
     19 C         138.7112  140.1623  165.7698 C.2     1  UNL1        0.2257
     20 O         139.9986  140.6616  166.3558 O.2     1  UNL1       -0.2748
     21 H         137.0986  140.6912  164.4223 H       1  UNL1        0.1549
     22 C         138.1915  138.8066  166.1466 C.3     1  UNL1        0.0768
     23 C         137.3477  137.9390  167.0326 C.3     1  UNL1        0.0096
     24 C         138.1354  137.3259  165.9130 C.3     1  UNL1        0.0096
     25 S         140.6767  138.0169  157.6751 S.O2    1  UNL1        0.0633
     26 O         142.0764  137.8808  158.1968 O.2     1  UNL1       -0.1528
     27 O         139.2769  138.1530  157.1535 O.2     1  UNL1       -0.1528
     28 C         141.0232  137.1321  156.5146 C.ar    1  UNL1        0.1222
     29 C         140.1019  137.0486  155.3338 C.ar    1  UNL1        0.0208
     30 C         140.4485  136.1637  154.1732 C.ar    1  UNL1        0.0128
     31 C         141.7162  135.3623  154.1934 C.ar    1  UNL1        0.0578
     32 CL        142.0628  134.4775  153.0329 Cl      1  UNL1       -0.0822
     33 C         142.6375  135.4458  155.3742 C.ar    1  UNL1        0.0128
     34 C         142.2910  136.3306  156.5348 C.ar    1  UNL1        0.0208
     35 C         141.5619  144.9856  159.4008 C.3     1  UNL1        0.1204
     36 C         140.7982  145.1151  154.9680 C.ar    1  UNL1        0.1387
     37 C         142.0695  144.5164  155.4928 C.ar    1  UNL1        0.0366
     38 C         142.3240  144.4733  156.9705 C.ar    1  UNL1        0.0005
     39 C         141.3074  145.0288  157.9232 C.ar    1  UNL1       -0.0021
     40 C         140.0360  145.6274  157.3984 C.ar    1  UNL1        0.0005
     41 C         139.7816  145.6705  155.9207 C.ar    1  UNL1        0.0366
     42 C         141.2946  146.1290  152.6280 C.3     1  UNL1        0.2525
     43 O         140.5437  145.1582  153.4904 O.3     1  UNL1       -0.4714
@<TRIPOS>BOND
     1    42    43    1
     2    43    36    1
     3    36    37   ar
     4    37    38   ar
     5    38    39   ar
     6    39    35    1
     7    35     1    1
     8     1     2    1
     9     3     2    1
    10     3     4    1
    11     4     5    1
    12     5    25    1
    13    25    26    2
    14    25    27    2
    15    25    28    1
    16    28    29   ar
    17    29    30   ar
    18    30    31   ar
    19    31    32    1
    20    31    33   ar
    21    33    34   ar
    22     5     6    1
    23     6     7    1
    24     8     7    1
    25     8     9    1
    26     9    10    1
    27    10    11   ar
    28    11    18    1
    29    18    19   am
    30    19    20    2
    31    19    22    1
    32    22    23    1
    33    23    24    1
    34    11    12   ar
    35    12    13   ar
    36    13    14   ar
    37    14    15   ar
    38    15    16    1
    39    16    17    2
    40    39    40   ar
    41    40    41   ar
    42    41    36   ar
    43    16     1   am
    44     8     3    1
    45    15    10   ar
    46    34    28   ar
    47    24    22    1
    48    18    21    1
@<TRIPOS>MOLECULE
*****
 43 48 0 0 0
SMALL
GASTEIGER

@<TRIPOS>ATOM
      1 N         139.3961  140.2883  158.9465 N.am    1  UNL1       -0.2717
      2 C         140.0054  139.0549  158.3485 C.3     1  UNL1        0.0990
      3 C         141.1937  138.7745  157.4769 C.3     1  UNL1        0.0776
      4 C         141.1858  137.2880  157.2763 C.3     1  UNL1        0.1011
      5 N         142.2490  136.6384  156.4412 N.3     1  UNL1       -0.1552
      6 C         143.3201  137.4751  155.8067 C.3     1  UNL1        0.0995
      7 C         143.3280  138.9616  156.0074 C.3     1  UNL1        0.0627
      8 C         142.2648  139.6113  156.8425 C.3     1  UNL1        0.1704
      9 O         142.5914  141.0751  156.8167 O.3     1  UNL1       -0.4776
     10 C         141.9821  142.3085  157.4147 C.ar    1  UNL1        0.1560
     11 C         142.8589  143.4359  156.9567 C.ar    1  UNL1        0.0849
     12 C         142.5476  144.8438  157.3701 C.ar    1  UNL1        0.0178
     13 C         141.3594  145.1242  158.2416 C.ar    1  UNL1        0.0016
     14 C         140.4825  143.9967  158.6997 C.ar    1  UNL1        0.0077
     15 C         140.7938  142.5889  158.2863 C.ar    1  UNL1        0.0887
     16 C         139.7227  141.7521  158.9207 C.2     1  UNL1        0.2523
     17 O         138.7499  142.5713  159.7160 O.2     1  UNL1       -0.2698
     18 N         144.0471  143.1556  156.0852 N.am    1  UNL1       -0.2816
     19 C         145.3471  142.7325  156.7027 C.2     1  UNL1        0.2257
     20 O         145.4588  142.5898  158.1917 O.2     1  UNL1       -0.2748
     21 H         143.9738  143.2492  155.1079 H       1  UNL1        0.1549
     22 C         146.5353  142.4522  155.8311 C.3     1  UNL1        0.0768
     23 C         147.2197  142.5424  154.4994 C.3     1  UNL1        0.0096
     24 C         147.9090  141.8764  155.6533 C.3     1  UNL1        0.0096
     25 S         142.2412  135.1518  156.2405 S.O2    1  UNL1        0.0633
     26 O         141.0386  135.2779  155.3529 O.2     1  UNL1       -0.1528
     27 O         143.4438  135.0257  157.1280 O.2     1  UNL1       -0.1528
     28 C         142.2334  133.6653  156.0398 C.ar    1  UNL1        0.1222
     29 C         143.0939  132.7879  156.8998 C.ar    1  UNL1        0.0208
     30 C         143.0861  131.3014  156.6991 C.ar    1  UNL1        0.0128
     31 C         142.2177  130.6923  155.6384 C.ar    1  UNL1        0.0578
     32 CL        142.2099  129.2059  155.4378 Cl      1  UNL1       -0.0822
     33 C         141.3572  131.5698  154.7785 C.ar    1  UNL1        0.0128
     34 C         141.3650  133.0562  154.9791 C.ar    1  UNL1        0.0208
     35 C         138.1734  139.9871  159.7615 C.3     1  UNL1        0.1204
     36 C         138.5938  138.6184  164.0276 C.ar    1  UNL1        0.1387
     37 C         138.0555  139.9862  163.7283 C.ar    1  UNL1        0.0366
     38 C         137.9154  140.4424  162.3063 C.ar    1  UNL1        0.0005
     39 C         138.3135  139.5309  161.1835 C.ar    1  UNL1       -0.0021
     40 C         138.8518  138.1631  161.4827 C.ar    1  UNL1        0.0005
     41 C         138.9919  137.7069  162.9048 C.ar    1  UNL1        0.0366
     42 C         137.9721  138.8572  166.5388 C.3     1  UNL1        0.2525
     43 O         138.7339  138.1621  165.4496 O.3     1  UNL1       -0.4714
@<TRIPOS>BOND
     1    42    43    1
     2    43    36    1
     3    36    37   ar
     4    37    38   ar
     5    38    39   ar
     6    39    35    1
     7    35     1    1
     8     1     2    1
     9     3     2    1
    10     3     4    1
    11     4     5    1
    12     5    25    1
    13    25    26    2
    14    25    27    2
    15    25    28    1
    16    28    29   ar
    17    29    30   ar
    18    30    31   ar
    19    31    32    1
    20    31    33   ar
    21    33    34   ar
    22     5     6    1
    23     6     7    1
    24     8     7    1
    25     8     9    1
    26     9    10    1
    27    10    11   ar
    28    11    18    1
    29    18    19   am
    30    19    20    2
    31    19    22    1
    32    22    23    1
    33    23    24    1
    34    11    12   ar
    35    12    13   ar
    36    13    14   ar
    37    14    15   ar
    38    15    16    1
    39    16    17    2
    40    39    40   ar
    41    40    41   ar
    42    41    36   ar
    43    16     1   am
    44     8     3    1
    45    15    10   ar
    46    34    28   ar
    47    24    22    1
    48    18    21    1
@<TRIPOS>MOLECULE
*****
 43 48 0 0 0
SMALL
GASTEIGER

@<TRIPOS>ATOM
      1 N         136.3701  140.2360  155.2554 N.am    1  UNL1       -0.2717
      2 C         136.9067  140.6588  156.5908 C.3     1  UNL1        0.0990
      3 C         138.0958  140.2817  157.4238 C.3     1  UNL1        0.0776
      4 C         137.9880  141.1260  158.6589 C.3     1  UNL1        0.1011
      5 N         139.0252  141.0141  159.7367 N.3     1  UNL1       -0.1552
      6 C         140.1702  140.0580  159.5794 C.3     1  UNL1        0.0995
      7 C         140.2780  139.2137  158.3443 C.3     1  UNL1        0.0627
      8 C         139.2408  139.3256  157.2665 C.3     1  UNL1        0.1704
      9 O         139.6710  138.3504  156.2110 O.3     1  UNL1       -0.4776
     10 C         139.1344  137.9276  154.8756 C.ar    1  UNL1        0.1560
     11 C         140.1015  136.8946  154.3780 C.ar    1  UNL1        0.0849
     12 C         139.8795  136.2387  153.0474 C.ar    1  UNL1        0.0178
     13 C         138.6904  136.6158  152.2143 C.ar    1  UNL1        0.0016
     14 C         137.7233  137.6488  152.7120 C.ar    1  UNL1        0.0077
     15 C         137.9453  138.3047  154.0425 C.ar    1  UNL1        0.0887
     16 C         136.8003  139.2609  154.1999 C.2     1  UNL1        0.2523
     17 O         135.8664  139.2361  153.0263 O.2     1  UNL1       -0.2698
     18 N         141.2905  136.5175  155.2110 N.am    1  UNL1       -0.2816
     19 C         141.5803  135.0733  155.4942 C.2     1  UNL1        0.2257
     20 O         140.6808  134.0061  154.9445 O.2     1  UNL1       -0.2748
     21 H         141.8809  137.2179  155.5718 H       1  UNL1        0.1549
     22 C         142.7694  134.6962  156.3272 C.3     1  UNL1        0.0768
     23 C         144.1038  134.0236  156.4570 C.3     1  UNL1        0.0096
     24 C         143.4946  134.7157  157.6401 C.3     1  UNL1        0.0096
     25 S         138.9174  141.8584  160.9719 S.O2    1  UNL1        0.0633
     26 O         139.6718  140.8197  161.7478 O.2     1  UNL1       -0.1528
     27 O         138.1631  142.8971  160.1961 O.2     1  UNL1       -0.1528
     28 C         138.8096  142.7027  162.2070 C.ar    1  UNL1        0.1222
     29 C         139.6736  143.9191  162.3618 C.ar    1  UNL1        0.0208
     30 C         139.5658  144.7634  163.5970 C.ar    1  UNL1        0.0128
     31 C         138.5940  144.3913  164.6773 C.ar    1  UNL1        0.0578
     32 CL        138.4862  145.2356  165.9124 Cl      1  UNL1       -0.0822
     33 C         137.7300  143.1749  164.5225 C.ar    1  UNL1        0.0128
     34 C         137.8378  142.3306  163.2874 C.ar    1  UNL1        0.0208
     35 C         135.1069  140.9575  154.8897 C.3     1  UNL1        0.1204
     36 C         131.1685  139.6047  156.5954 C.ar    1  UNL1        0.1387
     37 C         131.2829  140.9547  155.9515 C.ar    1  UNL1        0.0366
     38 C         132.5958  141.4056  155.3830 C.ar    1  UNL1        0.0005
     39 C         133.7942  140.5066  155.4583 C.ar    1  UNL1       -0.0021
     40 C         133.6798  139.1566  156.1021 C.ar    1  UNL1        0.0005
     41 C         132.3669  138.7057  156.6706 C.ar    1  UNL1        0.0366
     42 C         129.7925  138.5976  158.5555 C.3     1  UNL1        0.2525
     43 O         129.8558  139.1538  157.1639 O.3     1  UNL1       -0.4714
@<TRIPOS>BOND
     1    42    43    1
     2    43    36    1
     3    36    37   ar
     4    37    38   ar
     5    38    39   ar
     6    39    35    1
     7    35     1    1
     8     1     2    1
     9     3     2    1
    10     3     4    1
    11     4     5    1
    12     5    25    1
    13    25    26    2
    14    25    27    2
    15    25    28    1
    16    28    29   ar
    17    29    30   ar
    18    30    31   ar
    19    31    32    1
    20    31    33   ar
    21    33    34   ar
    22     5     6    1
    23     6     7    1
    24     8     7    1
    25     8     9    1
    26     9    10    1
    27    10    11   ar
    28    11    18    1
    29    18    19   am
    30    19    20    2
    31    19    22    1
    32    22    23    1
    33    23    24    1
    34    11    12   ar
    35    12    13   ar
    36    13    14   ar
    37    14    15   ar
    38    15    16    1
    39    16    17    2
    40    39    40   ar
    41    40    41   ar
    42    41    36   ar
    43    16     1   am
    44     8     3    1
    45    15    10   ar
    46    34    28   ar
    47    24    22    1
    48    18    21    1
@<TRIPOS>MOLECULE
*****
 43 48 0 0 0
SMALL
GASTEIGER

@<TRIPOS>ATOM
      1 N         141.0728  141.6661  158.1701 N.am    1  UNL1       -0.2717
      2 C         141.4038  141.1107  159.5236 C.3     1  UNL1        0.0990
      3 C         142.0993  139.8793  160.0237 C.3     1  UNL1        0.0776
      4 C         142.0597  139.9912  161.5190 C.3     1  UNL1        0.1011
      5 N         142.6726  138.9173  162.3680 N.3     1  UNL1       -0.1552
      6 C         143.3252  137.7313  161.7217 C.3     1  UNL1        0.0995
      7 C         143.3649  137.6194  160.2264 C.3     1  UNL1        0.0627
      8 C         142.7519  138.6934  159.3774 C.3     1  UNL1        0.1704
      9 O         142.9794  138.2475  157.9633 O.3     1  UNL1       -0.4776
     10 C         142.6484  138.8029  156.6099 C.ar    1  UNL1        0.1560
     11 C         143.1931  137.8012  155.6354 C.ar    1  UNL1        0.0849
     12 C         143.0423  138.0307  154.1607 C.ar    1  UNL1        0.0178
     13 C         142.3467  139.2621  153.6606 C.ar    1  UNL1        0.0016
     14 C         141.8020  140.2639  154.6352 C.ar    1  UNL1        0.0077
     15 C         141.9528  140.0343  156.1098 C.ar    1  UNL1        0.0887
     16 C         141.3002  141.2202  156.7560 C.2     1  UNL1        0.2523
     17 O         140.7447  142.1872  155.7529 O.2     1  UNL1       -0.2698
     18 N         143.8886  136.5699  156.1354 N.am    1  UNL1       -0.2816
     19 C         143.1296  135.2835  156.2734 C.2     1  UNL1        0.2257
     20 O         141.6750  135.2284  155.9113 O.2     1  UNL1       -0.2748
     21 H         144.8433  136.6060  156.3730 H       1  UNL1        0.1549
     22 C         143.8252  134.0521  156.7734 C.3     1  UNL1        0.0768
     23 C         144.3976  132.6894  156.5182 C.3     1  UNL1        0.0096
     24 C         144.4576  133.2822  157.8947 C.3     1  UNL1        0.0096
     25 S         142.6330  139.0292  163.8633 S.O2    1  UNL1        0.0633
     26 O         141.1337  139.0457  163.8224 O.2     1  UNL1       -0.1528
     27 O         144.1323  139.0127  163.9042 O.2     1  UNL1       -0.1528
     28 C         142.5934  139.1411  165.3586 C.ar    1  UNL1        0.1222
     29 C         143.4846  138.2758  166.1993 C.ar    1  UNL1        0.0208
     30 C         143.4450  138.3877  167.6947 C.ar    1  UNL1        0.0128
     31 C         142.5142  139.3650  168.3492 C.ar    1  UNL1        0.0578
     32 CL        142.4746  139.4769  169.8444 Cl      1  UNL1       -0.0822
     33 C         141.6229  140.2303  167.5084 C.ar    1  UNL1        0.0128
     34 C         141.6625  140.1184  166.0132 C.ar    1  UNL1        0.0208
     35 C         140.3432  142.9743  158.2493 C.3     1  UNL1        0.1204
     36 C         139.3416  144.7530  162.2596 C.ar    1  UNL1        0.1387
     37 C         140.3947  145.3870  161.3999 C.ar    1  UNL1        0.0366
     38 C         140.7285  144.7940  160.0631 C.ar    1  UNL1        0.0005
     39 C         140.0093  143.5672  159.5860 C.ar    1  UNL1       -0.0021
     40 C         138.9562  142.9332  160.4457 C.ar    1  UNL1        0.0005
     41 C         138.6224  143.5262  161.7825 C.ar    1  UNL1        0.0366
     42 C         138.9609  144.4714  164.8141 C.3     1  UNL1        0.2525
     43 O         139.0077  145.3459  163.5963 O.3     1  UNL1       -0.4714
@<TRIPOS>BOND
     1    42    43    1
     2    43    36    1
     3    36    37   ar
     4    37    38   ar
     5    38    39   ar
     6    39    35    1
     7    35     1    1
     8     1     2    1
     9     3     2    1
    10     3     4    1
    11     4     5    1
    12     5    25    1
    13    25    26    2
    14    25    27    2
    15    25    28    1
    16    28    29   ar
    17    29    30   ar
    18    30    31   ar
    19    31    32    1
    20    31    33   ar
    21    33    34   ar
    22     5     6    1
    23     6     7    1
    24     8     7    1
    25     8     9    1
    26     9    10    1
    27    10    11   ar
    28    11    18    1
    29    18    19   am
    30    19    20    2
    31    19    22    1
    32    22    23    1
    33    23    24    1
    34    11    12   ar
    35    12    13   ar
    36    13    14   ar
    37    14    15   ar
    38    15    16    1
    39    16    17    2
    40    39    40   ar
    41    40    41   ar
    42    41    36   ar
    43    16     1   am
    44     8     3    1
    45    15    10   ar
    46    34    28   ar
    47    24    22    1
    48    18    21    1
@<TRIPOS>MOLECULE
*****
 43 48 0 0 0
SMALL
GASTEIGER

@<TRIPOS>ATOM
      1 N         139.0685  139.8419  157.5182 N.am    1  UNL1       -0.2717
      2 C         139.8126  139.9083  158.8189 C.3     1  UNL1        0.0990
      3 C         140.9690  139.1644  159.4186 C.3     1  UNL1        0.0776
      4 C         141.1679  139.7812  160.7713 C.3     1  UNL1        0.1011
      5 N         142.2579  139.2795  161.6714 N.3     1  UNL1       -0.1552
      6 C         143.1490  138.1610  161.2187 C.3     1  UNL1        0.0995
      7 C         142.9501  137.5443  159.8659 C.3     1  UNL1        0.0627
      8 C         141.8601  138.0460  158.9659 C.3     1  UNL1        0.1704
      9 O         141.9640  137.2081  157.7260 O.3     1  UNL1       -0.4776
     10 C         141.2199  137.1416  156.4253 C.ar    1  UNL1        0.1560
     11 C         141.8880  136.0442  155.6514 C.ar    1  UNL1        0.0849
     12 C         141.3999  135.6905  154.2778 C.ar    1  UNL1        0.0178
     13 C         140.2435  136.4344  153.6782 C.ar    1  UNL1        0.0016
     14 C         139.5754  137.5319  154.4522 C.ar    1  UNL1        0.0077
     15 C         140.0635  137.8856  155.8256 C.ar    1  UNL1        0.0887
     16 C         139.1724  139.0040  156.2783 C.2     1  UNL1        0.2523
     17 O         138.1439  139.3706  155.2499 O.2     1  UNL1       -0.2698
     18 N         143.0443  135.3002  156.2510 N.am    1  UNL1       -0.2816
     19 C         142.9486  133.8203  156.4757 C.2     1  UNL1        0.2257
     20 O         141.6965  133.0842  156.1009 O.2     1  UNL1       -0.2748
     21 H         143.8661  135.7833  156.4970 H       1  UNL1        0.1549
     22 C         144.1050  133.0763  157.0753 C.3     1  UNL1        0.0768
     23 C         145.0401  132.8358  158.2232 C.3     1  UNL1        0.0096
     24 C         145.1728  132.0285  156.9659 C.3     1  UNL1        0.0096
     25 S         142.4568  139.8962  163.0242 S.O2    1  UNL1        0.0633
     26 O         143.7021  140.5727  162.5328 O.2     1  UNL1       -0.1528
     27 O         141.2115  139.2198  163.5157 O.2     1  UNL1       -0.1528
     28 C         142.6557  140.5130  164.3770 C.ar    1  UNL1        0.1222
     29 C         143.1311  141.9309  164.4923 C.ar    1  UNL1        0.0208
     30 C         143.3300  142.5476  165.8452 C.ar    1  UNL1        0.0128
     31 C         143.0534  141.7464  167.0827 C.ar    1  UNL1        0.0578
     32 CL        143.2523  142.3631  168.4355 Cl      1  UNL1       -0.0822
     33 C         142.5780  140.3284  166.9674 C.ar    1  UNL1        0.0128
     34 C         142.3791  139.7117  165.6146 C.ar    1  UNL1        0.0208
     35 C         137.9604  140.8498  157.4387 C.3     1  UNL1        0.1204
     36 C         138.6953  144.8553  155.5242 C.ar    1  UNL1        0.1387
     37 C         137.3513  144.2007  155.4014 C.ar    1  UNL1        0.0366
     38 C         137.1064  142.8654  156.0396 C.ar    1  UNL1        0.0005
     39 C         138.2054  142.1849  156.8006 C.ar    1  UNL1       -0.0021
     40 C         139.5494  142.8396  156.9233 C.ar    1  UNL1        0.0005
     41 C         139.7943  144.1748  156.2851 C.ar    1  UNL1        0.0366
     42 C         138.9859  147.4287  155.7313 C.3     1  UNL1        0.2525
     43 O         138.9403  146.1905  154.8860 O.3     1  UNL1       -0.4714
@<TRIPOS>BOND
     1    42    43    1
     2    43    36    1
     3    36    37   ar
     4    37    38   ar
     5    38    39   ar
     6    39    35    1
     7    35     1    1
     8     1     2    1
     9     3     2    1
    10     3     4    1
    11     4     5    1
    12     5    25    1
    13    25    26    2
    14    25    27    2
    15    25    28    1
    16    28    29   ar
    17    29    30   ar
    18    30    31   ar
    19    31    32    1
    20    31    33   ar
    21    33    34   ar
    22     5     6    1
    23     6     7    1
    24     8     7    1
    25     8     9    1
    26     9    10    1
    27    10    11   ar
    28    11    18    1
    29    18    19   am
    30    19    20    2
    31    19    22    1
    32    22    23    1
    33    23    24    1
    34    11    12   ar
    35    12    13   ar
    36    13    14   ar
    37    14    15   ar
    38    15    16    1
    39    16    17    2
    40    39    40   ar
    41    40    41   ar
    42    41    36   ar
    43    16     1   am
    44     8     3    1
    45    15    10   ar
    46    34    28   ar
    47    24    22    1
    48    18    21    1
@<TRIPOS>MOLECULE
*****
 43 48 0 0 0
SMALL
GASTEIGER

@<TRIPOS>ATOM
      1 N         140.2756  143.3721  158.5731 N.am    1  UNL1       -0.2717
      2 C         140.6306  141.9729  158.1653 C.3     1  UNL1        0.0990
      3 C         141.2637  140.7972  158.8486 C.3     1  UNL1        0.0776
      4 C         141.3009  139.7173  157.8083 C.3     1  UNL1        0.1011
      5 N         141.8784  138.3738  158.1423 N.3     1  UNL1       -0.1552
      6 C         142.4187  138.1103  159.5165 C.3     1  UNL1        0.0995
      7 C         142.3815  139.1902  160.5569 C.3     1  UNL1        0.0627
      8 C         141.8040  140.5337  160.2229 C.3     1  UNL1        0.1704
      9 O         141.9350  141.3367  161.4831 O.3     1  UNL1       -0.4776
     10 C         141.5801  142.7359  161.8910 C.ar    1  UNL1        0.1560
     11 C         142.0101  142.8435  163.3239 C.ar    1  UNL1        0.0849
     12 C         141.8071  144.1268  164.0736 C.ar    1  UNL1        0.0178
     13 C         141.1740  145.3025  163.3902 C.ar    1  UNL1        0.0016
     14 C         140.7440  145.1948  161.9572 C.ar    1  UNL1        0.0077
     15 C         140.9470  143.9116  161.2076 C.ar    1  UNL1        0.0887
     16 C         140.4067  144.1752  159.8333 C.2     1  UNL1        0.2523
     17 O         139.8720  145.5686  159.6842 O.2     1  UNL1       -0.2698
     18 N         142.6431  141.6678  164.0073 N.am    1  UNL1       -0.2816
     19 C         141.8332  140.8170  164.9401 C.2     1  UNL1        0.2257
     20 O         140.3902  141.1418  165.1895 O.2     1  UNL1       -0.2748
     21 H         143.5902  141.4546  163.8436 H       1  UNL1        0.1549
     22 C         142.4664  139.6413  165.6235 C.3     1  UNL1        0.0768
     23 C         142.9979  138.9933  166.8674 C.3     1  UNL1        0.0096
     24 C         143.0313  138.2530  165.5632 C.3     1  UNL1        0.0096
     25 S         141.9157  137.2938  157.1019 S.O2    1  UNL1        0.0633
     26 O         140.4163  137.2800  157.0625 O.2     1  UNL1       -0.1528
     27 O         143.4151  137.3077  157.1413 O.2     1  UNL1       -0.1528
     28 C         141.9530  136.2139  156.0616 C.ar    1  UNL1        0.1222
     29 C         142.8313  135.0138  156.2575 C.ar    1  UNL1        0.0208
     30 C         142.8685  133.9338  155.2171 C.ar    1  UNL1        0.0128
     31 C         142.0276  134.0539  153.9809 C.ar    1  UNL1        0.0578
     32 CL        142.0649  132.9740  152.9406 Cl      1  UNL1       -0.0822
     33 C         141.1493  135.2540  153.7850 C.ar    1  UNL1        0.0128
     34 C         141.1120  136.3340  154.8253 C.ar    1  UNL1        0.0208
     35 C         139.6407  144.1510  157.4595 C.3     1  UNL1        0.1204
     36 C         137.0642  142.0488  154.4276 C.ar    1  UNL1        0.1387
     37 C         138.3851  142.6285  154.0163 C.ar    1  UNL1        0.0366
     38 C         139.2439  143.3292  155.0270 C.ar    1  UNL1        0.0005
     39 C         138.7819  143.4503  156.4489 C.ar    1  UNL1       -0.0021
     40 C         137.4609  142.8706  156.8602 C.ar    1  UNL1        0.0005
     41 C         136.6021  142.1698  155.8494 C.ar    1  UNL1        0.0366
     42 C         135.0584  140.4945  153.8703 C.3     1  UNL1        0.2525
     43 O         136.2054  141.3481  153.4169 O.3     1  UNL1       -0.4714
@<TRIPOS>BOND
     1    42    43    1
     2    43    36    1
     3    36    37   ar
     4    37    38   ar
     5    38    39   ar
     6    39    35    1
     7    35     1    1
     8     1     2    1
     9     3     2    1
    10     3     4    1
    11     4     5    1
    12     5    25    1
    13    25    26    2
    14    25    27    2
    15    25    28    1
    16    28    29   ar
    17    29    30   ar
    18    30    31   ar
    19    31    32    1
    20    31    33   ar
    21    33    34   ar
    22     5     6    1
    23     6     7    1
    24     8     7    1
    25     8     9    1
    26     9    10    1
    27    10    11   ar
    28    11    18    1
    29    18    19   am
    30    19    20    2
    31    19    22    1
    32    22    23    1
    33    23    24    1
    34    11    12   ar
    35    12    13   ar
    36    13    14   ar
    37    14    15   ar
    38    15    16    1
    39    16    17    2
    40    39    40   ar
    41    40    41   ar
    42    41    36   ar
    43    16     1   am
    44     8     3    1
    45    15    10   ar
    46    34    28   ar
    47    24    22    1
    48    18    21    1
@<TRIPOS>MOLECULE
*****
 43 48 0 0 0
SMALL
GASTEIGER

@<TRIPOS>ATOM
      1 N         139.7392  139.6067  157.2071 N.am    1  UNL1       -0.2717
      2 C         140.3698  139.6801  158.5661 C.3     1  UNL1        0.0990
      3 C         141.4350  138.9058  159.2844 C.3     1  UNL1        0.0776
      4 C         141.5433  139.5536  160.6330 C.3     1  UNL1        0.1011
      5 N         142.5273  139.0330  161.6382 N.3     1  UNL1       -0.1552
      6 C         143.4031  137.8646  161.2950 C.3     1  UNL1        0.0995
      7 C         143.2948  137.2168  159.9464 C.3     1  UNL1        0.0627
      8 C         142.3108  137.7374  158.9411 C.3     1  UNL1        0.1704
      9 O         142.4842  136.8593  157.7374 O.3     1  UNL1       -0.4776
     10 C         141.8536  136.7859  156.3784 C.ar    1  UNL1        0.1560
     11 C         142.5363  135.6384  155.6951 C.ar    1  UNL1        0.0849
     12 C         142.1538  135.2650  154.2935 C.ar    1  UNL1        0.0178
     13 C         141.0886  136.0393  153.5752 C.ar    1  UNL1        0.0016
     14 C         140.4059  137.1869  154.2586 C.ar    1  UNL1        0.0077
     15 C         140.7884  137.5602  155.6601 C.ar    1  UNL1        0.0887
     16 C         139.9126  138.7286  156.0034 C.2     1  UNL1        0.2523
     17 O         138.9948  139.1079  154.8792 O.2     1  UNL1       -0.2698
     18 N         143.6015  134.8641  156.4133 N.am    1  UNL1       -0.2816
     19 C         143.3608  133.4334  156.7944 C.2     1  UNL1        0.2257
     20 O         142.0548  132.7770  156.4573 O.2     1  UNL1       -0.2748
     21 H         144.4586  135.2949  156.6345 H       1  UNL1        0.1549
     22 C         144.4261  132.6591  157.5126 C.3     1  UNL1        0.0768
     23 C         145.6837  132.6306  158.3294 C.3     1  UNL1        0.0096
     24 C         145.0133  131.3466  157.9397 C.3     1  UNL1        0.0096
     25 S         142.6355  139.6808  162.9869 S.O2    1  UNL1        0.0633
     26 O         144.0683  139.2468  163.0803 O.2     1  UNL1       -0.1528
     27 O         141.2028  140.1147  162.8934 O.2     1  UNL1       -0.1528
     28 C         142.7437  140.3285  164.3354 C.ar    1  UNL1        0.1222
     29 C         142.5208  139.5172  165.5772 C.ar    1  UNL1        0.0208
     30 C         142.6290  140.1650  166.9259 C.ar    1  UNL1        0.0128
     31 C         142.9602  141.6241  167.0326 C.ar    1  UNL1        0.0578
     32 CL        143.0684  142.2719  168.3812 Cl      1  UNL1       -0.0822
     33 C         143.1831  142.4354  165.7908 C.ar    1  UNL1        0.0128
     34 C         143.0749  141.7877  164.4422 C.ar    1  UNL1        0.0208
     35 C         138.6888  140.6581  157.0042 C.3     1  UNL1        0.1204
     36 C         139.8941  144.9321  156.2761 C.ar    1  UNL1        0.1387
     37 C         139.6074  144.0256  155.1159 C.ar    1  UNL1        0.0366
     38 C         139.2056  142.6010  155.3586 C.ar    1  UNL1        0.0005
     39 C         139.0906  142.0827  156.7615 C.ar    1  UNL1       -0.0021
     40 C         139.3773  142.9891  157.9218 C.ar    1  UNL1        0.0005
     41 C         139.7791  144.4138  157.6790 C.ar    1  UNL1        0.0366
     42 C         139.2608  147.3736  155.6537 C.3     1  UNL1        0.2525
     43 O         140.2959  146.3567  156.0335 O.3     1  UNL1       -0.4714
@<TRIPOS>BOND
     1    42    43    1
     2    43    36    1
     3    36    37   ar
     4    37    38   ar
     5    38    39   ar
     6    39    35    1
     7    35     1    1
     8     1     2    1
     9     3     2    1
    10     3     4    1
    11     4     5    1
    12     5    25    1
    13    25    26    2
    14    25    27    2
    15    25    28    1
    16    28    29   ar
    17    29    30   ar
    18    30    31   ar
    19    31    32    1
    20    31    33   ar
    21    33    34   ar
    22     5     6    1
    23     6     7    1
    24     8     7    1
    25     8     9    1
    26     9    10    1
    27    10    11   ar
    28    11    18    1
    29    18    19   am
    30    19    20    2
    31    19    22    1
    32    22    23    1
    33    23    24    1
    34    11    12   ar
    35    12    13   ar
    36    13    14   ar
    37    14    15   ar
    38    15    16    1
    39    16    17    2
    40    39    40   ar
    41    40    41   ar
    42    41    36   ar
    43    16     1   am
    44     8     3    1
    45    15    10   ar
    46    34    28   ar
    47    24    22    1
    48    18    21    1
@<TRIPOS>MOLECULE
*****
 43 48 0 0 0
SMALL
GASTEIGER

@<TRIPOS>ATOM
      1 N         139.6652  143.6842  155.2806 N.am    1  UNL1       -0.2717
      2 C         139.8883  143.3293  156.7208 C.3     1  UNL1        0.0990
      3 C         139.2142  142.4211  157.7061 C.3     1  UNL1        0.0776
      4 C         139.9956  142.5784  158.9768 C.3     1  UNL1        0.1011
      5 N         139.6006  141.8063  160.2006 N.3     1  UNL1       -0.1552
      6 C         138.4241  140.8770  160.1538 C.3     1  UNL1        0.0995
      7 C         137.6427  140.7197  158.8831 C.3     1  UNL1        0.0627
      8 C         138.0377  141.4917  157.6593 C.3     1  UNL1        0.1704
      9 O         137.0480  141.0855  156.6078 O.3     1  UNL1       -0.4776
     10 C         136.8249  141.4405  155.1676 C.ar    1  UNL1        0.1560
     11 C         135.6308  140.6347  154.7496 C.ar    1  UNL1        0.0849
     12 C         135.1108  140.7370  153.3464 C.ar    1  UNL1        0.0178
     13 C         135.7850  141.6452  152.3610 C.ar    1  UNL1        0.0016
     14 C         136.9791  142.4510  152.7791 C.ar    1  UNL1        0.0077
     15 C         137.4991  142.3487  154.1822 C.ar    1  UNL1        0.0887
     16 C         138.6755  143.2780  154.2290 C.2     1  UNL1        0.2523
     17 O         138.9196  143.9616  152.9164 O.2     1  UNL1       -0.2698
     18 N         134.9567  139.7265  155.7349 N.am    1  UNL1       -0.2816
     19 C         133.6092  140.0867  156.2868 C.2     1  UNL1        0.2257
     20 O         132.9358  141.3551  155.8534 O.2     1  UNL1       -0.2748
     21 H         135.3986  138.8941  156.0193 H       1  UNL1        0.1549
     22 C         132.9350  139.1784  157.2720 C.3     1  UNL1        0.0768
     23 C         133.0145  138.2437  158.4424 C.3     1  UNL1        0.0096
     24 C         131.6879  138.5401  157.8081 C.3     1  UNL1        0.0096
     25 S         140.3820  141.9636  161.4713 S.O2    1  UNL1        0.0633
     26 O         140.3751  143.4527  161.2913 O.2     1  UNL1       -0.1528
     27 O         140.3890  140.4745  161.6513 O.2     1  UNL1       -0.1528
     28 C         141.1634  142.1208  162.7420 C.ar    1  UNL1        0.1222
     29 C         141.4369  140.9263  163.6070 C.ar    1  UNL1        0.0208
     30 C         142.2184  141.0835  164.8777 C.ar    1  UNL1        0.0128
     31 C         142.7263  142.4353  165.2834 C.ar    1  UNL1        0.0578
     32 CL        143.5077  142.5926  166.5540 Cl      1  UNL1       -0.0822
     33 C         142.4528  143.6299  164.4184 C.ar    1  UNL1        0.0128
     34 C         141.6714  143.4727  163.1477 C.ar    1  UNL1        0.0208
     35 C         140.6667  144.6787  154.7727 C.3     1  UNL1        0.1204
     36 C         139.5462  149.0229  154.4237 C.ar    1  UNL1        0.1387
     37 C         138.9941  148.1937  155.5452 C.ar    1  UNL1        0.0366
     38 C         139.3677  146.7456  155.6615 C.ar    1  UNL1        0.0005
     39 C         140.2932  146.1267  154.6564 C.ar    1  UNL1       -0.0021
     40 C         140.8453  146.9559  153.5348 C.ar    1  UNL1        0.0005
     41 C         140.4717  148.4040  153.4185 C.ar    1  UNL1        0.0366
     42 C         138.6266  151.2026  155.4975 C.3     1  UNL1        0.2525
     43 O         139.1727  150.4710  154.3073 O.3     1  UNL1       -0.4714
@<TRIPOS>BOND
     1    42    43    1
     2    43    36    1
     3    36    37   ar
     4    37    38   ar
     5    38    39   ar
     6    39    35    1
     7    35     1    1
     8     1     2    1
     9     3     2    1
    10     3     4    1
    11     4     5    1
    12     5    25    1
    13    25    26    2
    14    25    27    2
    15    25    28    1
    16    28    29   ar
    17    29    30   ar
    18    30    31   ar
    19    31    32    1
    20    31    33   ar
    21    33    34   ar
    22     5     6    1
    23     6     7    1
    24     8     7    1
    25     8     9    1
    26     9    10    1
    27    10    11   ar
    28    11    18    1
    29    18    19   am
    30    19    20    2
    31    19    22    1
    32    22    23    1
    33    23    24    1
    34    11    12   ar
    35    12    13   ar
    36    13    14   ar
    37    14    15   ar
    38    15    16    1
    39    16    17    2
    40    39    40   ar
    41    40    41   ar
    42    41    36   ar
    43    16     1   am
    44     8     3    1
    45    15    10   ar
    46    34    28   ar
    47    24    22    1
    48    18    21    1
