@<TRIPOS>MOLECULE
*****
 38 41 0 0 0
SMALL
GASTEIGER

@<TRIPOS>ATOM
      1 C         139.9717  139.4425  165.5457 C.ar    1  UNL1       -0.0026
      2 C         140.3426  138.5477  164.4004 C.ar    1  UNL1       -0.0026
      3 C         141.7093  137.9324  164.3414 C.ar    1  UNL1       -0.0003
      4 C         142.7051  138.2119  165.4278 C.ar    1  UNL1       -0.0000
      5 C         142.3342  139.1067  166.5731 C.ar    1  UNL1       -0.0003
      6 C         140.9675  139.7220  166.6321 C.ar    1  UNL1       -0.0022
      7 C         140.5966  140.6167  167.7774 C.ar    1  UNL1        0.0041
      8 C         139.8873  140.0510  168.9719 C.ar    1  UNL1        0.0001
      9 C         139.5164  140.9458  170.1172 C.ar    1  UNL1        0.0000
     10 C         139.8548  142.4063  170.0681 C.ar    1  UNL1        0.0001
     11 C         140.5641  142.9720  168.8736 C.ar    1  UNL1        0.0045
     12 C         140.9350  142.0772  167.7282 C.ar    1  UNL1        0.0533
     13 C         141.6443  142.6429  166.5337 C.2     1  UNL1        0.2459
     14 O         140.8584  143.2861  165.4298 O.2     1  UNL1       -0.2701
     15 N         143.1396  142.5654  166.4431 N.am    1  UNL1       -0.3005
     16 H         143.6554  142.1433  167.1677 H       1  UNL1        0.1497
     17 C         143.8489  143.1311  165.2486 C.3     1  UNL1        0.0944
     18 C         144.6229  142.2253  164.3374 C.3     1  UNL1        0.0492
     19 C         143.9030  141.3959  163.3158 C.ar    1  UNL1       -0.0013
     20 C         142.4838  141.7186  162.9527 C.ar    1  UNL1       -0.0011
     21 C         141.7639  140.8891  161.9311 C.ar    1  UNL1        0.0204
     22 C         142.4632  139.7370  161.2725 C.ar    1  UNL1        0.0989
     23 N         143.8823  139.4143  161.6356 N.ar    1  UNL1       -0.2426
     24 C         144.6022  140.2438  162.6573 C.ar    1  UNL1        0.0946
     25 C         138.6049  140.0578  165.6046 C.3     1  UNL1        0.1163
     26 C         137.8888  141.6126  163.6503 C.2     1  UNL1        0.2271
     27 O         137.6254  140.4115  162.7912 O.2     1  UNL1       -0.2747
     28 N         138.3786  141.4358  165.0570 N.am    1  UNL1       -0.3001
     29 H         138.5514  142.2241  165.6208 H       1  UNL1        0.1498
     30 C         137.6624  142.9906  163.1026 C.3     1  UNL1        0.1113
     31 C         140.7344  144.8730  160.4064 C.ar    1  UNL1        0.1387
     32 C         139.9919  143.6493  159.9578 C.ar    1  UNL1        0.0366
     33 C         138.9679  143.0218  160.8566 C.ar    1  UNL1       -0.0007
     34 C         138.6864  143.6180  162.2038 C.ar    1  UNL1       -0.0129
     35 C         139.4289  144.8417  162.6524 C.ar    1  UNL1       -0.0007
     36 C         140.4529  145.4692  161.7537 C.ar    1  UNL1        0.0366
     37 C         141.4808  145.6454  158.0408 C.3     1  UNL1        0.2525
     38 O         141.7584  145.5004  159.5077 O.3     1  UNL1       -0.4714
@<TRIPOS>BOND
     1    37    38    1
     2    38    31    1
     3    31    32   ar
     4    32    33   ar
     5    33    34   ar
     6    34    30    1
     7    30    26    1
     8    26    27    2
     9    26    28   am
    10    28    25    1
    11    25     1    1
    12     1     2   ar
    13     2     3   ar
    14     3     4   ar
    15     4     5   ar
    16     5     6   ar
    17     6     7    1
    18     7     8   ar
    19     8     9   ar
    20     9    10   ar
    21    10    11   ar
    22    11    12   ar
    23    12    13    1
    24    13    14    2
    25    13    15   am
    26    15    17    1
    27    17    18    1
    28    18    19    1
    29    19    20   ar
    30    20    21   ar
    31    21    22   ar
    32    22    23   ar
    33    23    24   ar
    34    34    35   ar
    35    35    36   ar
    36    36    31   ar
    37     6     1   ar
    38    12     7   ar
    39    24    19   ar
    40    28    29    1
    41    15    16    1
@<TRIPOS>MOLECULE
*****
 38 41 0 0 0
SMALL
GASTEIGER

@<TRIPOS>ATOM
      1 C         139.1313  141.5210  165.5302 C.ar    1  UNL1       -0.0026
      2 C         138.0754  141.6324  164.4707 C.ar    1  UNL1       -0.0026
      3 C         137.7121  142.9764  163.9123 C.ar    1  UNL1       -0.0003
      4 C         138.4047  144.2089  164.4135 C.ar    1  UNL1       -0.0000
      5 C         139.4606  144.0975  165.4731 C.ar    1  UNL1       -0.0003
      6 C         139.8239  142.7535  166.0314 C.ar    1  UNL1       -0.0022
      7 C         140.8798  142.6421  167.0910 C.ar    1  UNL1        0.0041
      8 C         140.5010  142.7313  168.5396 C.ar    1  UNL1        0.0001
      9 C         141.5569  142.6198  169.5992 C.ar    1  UNL1        0.0000
     10 C         142.9916  142.4192  169.2101 C.ar    1  UNL1        0.0001
     11 C         143.3704  142.3300  167.7614 C.ar    1  UNL1        0.0045
     12 C         142.3144  142.4415  166.7019 C.ar    1  UNL1        0.0533
     13 C         142.6932  142.3523  165.2532 C.2     1  UNL1        0.2459
     14 O         142.8403  141.0112  164.5976 O.2     1  UNL1       -0.2701
     15 N         142.9249  143.6043  164.4602 N.am    1  UNL1       -0.3005
     16 H         142.8284  144.4845  164.8904 H       1  UNL1        0.1497
     17 C         143.3037  143.5151  163.0115 C.3     1  UNL1        0.0944
     18 C         142.4320  144.1485  161.9680 C.3     1  UNL1        0.0492
     19 C         141.1841  143.4533  161.5104 C.ar    1  UNL1       -0.0013
     20 C         141.0285  141.9762  161.7204 C.ar    1  UNL1       -0.0011
     21 C         139.7806  141.2809  161.2628 C.ar    1  UNL1        0.0204
     22 C         138.6883  142.0628  160.5952 C.ar    1  UNL1        0.0989
     23 N         138.8439  143.5399  160.3853 N.ar    1  UNL1       -0.2426
     24 C         140.0918  144.2351  160.8429 C.ar    1  UNL1        0.0946
     25 C         139.4946  140.1770  166.0886 C.3     1  UNL1        0.1163
     26 C         140.2498  138.2629  164.5025 C.2     1  UNL1        0.2271
     27 O         138.8152  137.9587  164.1866 O.2     1  UNL1       -0.2747
     28 N         140.5894  139.3720  165.4535 N.am    1  UNL1       -0.3001
     29 H         141.5309  139.5716  165.6608 H       1  UNL1        0.1498
     30 C         141.3445  137.4579  163.8673 C.3     1  UNL1        0.1113
     31 C         143.1459  138.7933  159.9658 C.ar    1  UNL1        0.1387
     32 C         143.9853  138.7643  161.2085 C.ar    1  UNL1        0.0366
     33 C         143.3849  138.3192  162.5090 C.ar    1  UNL1       -0.0007
     34 C         141.9450  137.9030  162.5668 C.ar    1  UNL1       -0.0129
     35 C         141.1055  137.9320  161.3241 C.ar    1  UNL1       -0.0007
     36 C         141.7059  138.3772  160.0236 C.ar    1  UNL1        0.0366
     37 C         144.0772  140.6853  158.4482 C.3     1  UNL1        0.2525
     38 O         143.7463  139.2385  158.6653 O.3     1  UNL1       -0.4714
@<TRIPOS>BOND
     1    37    38    1
     2    38    31    1
     3    31    32   ar
     4    32    33   ar
     5    33    34   ar
     6    34    30    1
     7    30    26    1
     8    26    27    2
     9    26    28   am
    10    28    25    1
    11    25     1    1
    12     1     2   ar
    13     2     3   ar
    14     3     4   ar
    15     4     5   ar
    16     5     6   ar
    17     6     7    1
    18     7     8   ar
    19     8     9   ar
    20     9    10   ar
    21    10    11   ar
    22    11    12   ar
    23    12    13    1
    24    13    14    2
    25    13    15   am
    26    15    17    1
    27    17    18    1
    28    18    19    1
    29    19    20   ar
    30    20    21   ar
    31    21    22   ar
    32    22    23   ar
    33    23    24   ar
    34    34    35   ar
    35    35    36   ar
    36    36    31   ar
    37     6     1   ar
    38    12     7   ar
    39    24    19   ar
    40    28    29    1
    41    15    16    1
@<TRIPOS>MOLECULE
*****
 38 41 0 0 0
SMALL
GASTEIGER

@<TRIPOS>ATOM
      1 C         143.3475  141.2986  165.6193 C.ar    1  UNL1       -0.0026
      2 C         143.9017  140.3895  164.5627 C.ar    1  UNL1       -0.0026
      3 C         143.9470  138.9085  164.7959 C.ar    1  UNL1       -0.0003
      4 C         143.4380  138.3364  166.0857 C.ar    1  UNL1       -0.0000
      5 C         142.8837  139.2454  167.1424 C.ar    1  UNL1       -0.0003
      6 C         142.8385  140.7265  166.9092 C.ar    1  UNL1       -0.0022
      7 C         142.2842  141.6355  167.9658 C.ar    1  UNL1        0.0041
      8 C         143.1802  142.1619  169.0476 C.ar    1  UNL1        0.0001
      9 C         142.6259  143.0709  170.1042 C.ar    1  UNL1        0.0000
     10 C         141.1757  143.4536  170.0791 C.ar    1  UNL1        0.0001
     11 C         140.2798  142.9271  168.9973 C.ar    1  UNL1        0.0045
     12 C         140.8341  142.0181  167.9407 C.ar    1  UNL1        0.0533
     13 C         139.9382  141.4917  166.8589 C.2     1  UNL1        0.2459
     14 O         139.5743  142.3653  165.6952 O.2     1  UNL1       -0.2701
     15 N         139.4062  140.0915  166.9409 N.am    1  UNL1       -0.3005
     16 H         139.6450  139.5181  167.7048 H       1  UNL1        0.1497
     17 C         138.5103  139.5651  165.8592 C.3     1  UNL1        0.0944
     18 C         138.9360  138.3809  165.0429 C.3     1  UNL1        0.0492
     19 C         139.8608  138.5672  163.8768 C.ar    1  UNL1       -0.0013
     20 C         140.1627  139.9471  163.3719 C.ar    1  UNL1       -0.0011
     21 C         141.0876  140.1334  162.2057 C.ar    1  UNL1        0.0204
     22 C         141.7106  138.9398  161.5445 C.ar    1  UNL1        0.0989
     23 N         141.4087  137.5600  162.0493 N.ar    1  UNL1       -0.2426
     24 C         140.4839  137.3737  163.2155 C.ar    1  UNL1        0.0946
     25 C         143.3022  142.7796  165.3861 C.3     1  UNL1        0.1163
     26 C         142.3725  144.5674  163.7461 C.2     1  UNL1        0.2271
     27 O         143.7501  145.1401  163.5896 O.2     1  UNL1       -0.2747
     28 N         142.1486  143.3872  164.6444 N.am    1  UNL1       -0.3001
     29 H         141.2445  143.0113  164.7472 H       1  UNL1        0.1498
     30 C         141.2190  145.1749  163.0044 C.3     1  UNL1        0.1113
     31 C         138.9453  142.7299  159.9874 C.ar    1  UNL1        0.1387
     32 C         138.4274  142.8626  161.3889 C.ar    1  UNL1        0.0366
     33 C         139.1853  143.6776  162.3945 C.ar    1  UNL1       -0.0007
     34 C         140.4611  144.3599  161.9987 C.ar    1  UNL1       -0.0129
     35 C         140.9790  144.2272  160.5973 C.ar    1  UNL1       -0.0007
     36 C         140.2212  143.4122  159.5916 C.ar    1  UNL1        0.0366
     37 C         137.8844  142.4863  157.6284 C.3     1  UNL1        0.2525
     38 O         138.1875  141.9149  158.9818 O.3     1  UNL1       -0.4714
@<TRIPOS>BOND
     1    37    38    1
     2    38    31    1
     3    31    32   ar
     4    32    33   ar
     5    33    34   ar
     6    34    30    1
     7    30    26    1
     8    26    27    2
     9    26    28   am
    10    28    25    1
    11    25     1    1
    12     1     2   ar
    13     2     3   ar
    14     3     4   ar
    15     4     5   ar
    16     5     6   ar
    17     6     7    1
    18     7     8   ar
    19     8     9   ar
    20     9    10   ar
    21    10    11   ar
    22    11    12   ar
    23    12    13    1
    24    13    14    2
    25    13    15   am
    26    15    17    1
    27    17    18    1
    28    18    19    1
    29    19    20   ar
    30    20    21   ar
    31    21    22   ar
    32    22    23   ar
    33    23    24   ar
    34    34    35   ar
    35    35    36   ar
    36    36    31   ar
    37     6     1   ar
    38    12     7   ar
    39    24    19   ar
    40    28    29    1
    41    15    16    1
@<TRIPOS>MOLECULE
*****
 38 41 0 0 0
SMALL
GASTEIGER

@<TRIPOS>ATOM
      1 C         141.1802  139.0116  165.7950 C.ar    1  UNL1       -0.0026
      2 C         140.2630  138.3570  164.8049 C.ar    1  UNL1       -0.0026
      3 C         138.7796  138.3827  165.0258 C.ar    1  UNL1       -0.0003
      4 C         138.2133  139.0630  166.2368 C.ar    1  UNL1       -0.0000
      5 C         139.1305  139.7177  167.2269 C.ar    1  UNL1       -0.0003
      6 C         140.6139  139.6920  167.0060 C.ar    1  UNL1       -0.0022
      7 C         141.5311  140.3466  167.9961 C.ar    1  UNL1        0.0041
      8 C         142.0394  139.5704  169.1747 C.ar    1  UNL1        0.0001
      9 C         142.9565  140.2251  170.1647 C.ar    1  UNL1        0.0000
     10 C         143.3654  141.6559  169.9762 C.ar    1  UNL1        0.0001
     11 C         142.8571  142.4321  168.7975 C.ar    1  UNL1        0.0045
     12 C         141.9399  141.7774  167.8075 C.ar    1  UNL1        0.0533
     13 C         141.4316  142.5536  166.6288 C.2     1  UNL1        0.2459
     14 O         142.3126  142.7645  165.4333 O.2     1  UNL1       -0.2701
     15 N         140.0423  143.1189  166.6458 N.am    1  UNL1       -0.3005
     16 H         139.4640  142.9805  167.4305 H       1  UNL1        0.1497
     17 C         139.5339  143.8951  165.4672 C.3     1  UNL1        0.0944
     18 C         138.3799  143.3708  164.6652 C.3     1  UNL1        0.0492
     19 C         138.5974  142.2719  163.6677 C.ar    1  UNL1       -0.0013
     20 C         139.9811  141.9720  163.1720 C.ar    1  UNL1       -0.0011
     21 C         140.1986  140.8731  162.1745 C.ar    1  UNL1        0.0204
     22 C         139.0325  140.0739  161.6728 C.ar    1  UNL1        0.0989
     23 N         137.6490  140.3737  162.1686 N.ar    1  UNL1       -0.2426
     24 C         137.4314  141.4727  163.1660 C.ar    1  UNL1        0.0946
     25 C         142.6636  138.9859  165.5741 C.3     1  UNL1        0.1163
     26 C         144.7717  139.9428  164.3950 C.2     1  UNL1        0.2271
     27 O         145.5738  138.7708  164.8780 O.2     1  UNL1       -0.2747
     28 N         143.3166  140.0504  164.7430 N.am    1  UNL1       -0.3001
     29 H         142.7902  140.8196  164.4261 H       1  UNL1        0.1498
     30 C         145.4248  141.0072  163.5640 C.3     1  UNL1        0.1113
     31 C         142.9096  143.7260  161.0083 C.ar    1  UNL1        0.1387
     32 C         143.1294  142.3006  160.5962 C.ar    1  UNL1        0.0366
     33 C         143.9678  141.3943  161.4481 C.ar    1  UNL1       -0.0007
     34 C         144.5864  141.9135  162.7121 C.ar    1  UNL1       -0.0129
     35 C         144.3666  143.3389  163.1242 C.ar    1  UNL1       -0.0007
     36 C         143.5282  144.2451  162.2723 C.ar    1  UNL1        0.0366
     37 C         140.7748  145.1709  160.6846 C.3     1  UNL1        0.2525
     38 O         142.0712  144.6323  160.1564 O.3     1  UNL1       -0.4714
@<TRIPOS>BOND
     1    37    38    1
     2    38    31    1
     3    31    32   ar
     4    32    33   ar
     5    33    34   ar
     6    34    30    1
     7    30    26    1
     8    26    27    2
     9    26    28   am
    10    28    25    1
    11    25     1    1
    12     1     2   ar
    13     2     3   ar
    14     3     4   ar
    15     4     5   ar
    16     5     6   ar
    17     6     7    1
    18     7     8   ar
    19     8     9   ar
    20     9    10   ar
    21    10    11   ar
    22    11    12   ar
    23    12    13    1
    24    13    14    2
    25    13    15   am
    26    15    17    1
    27    17    18    1
    28    18    19    1
    29    19    20   ar
    30    20    21   ar
    31    21    22   ar
    32    22    23   ar
    33    23    24   ar
    34    34    35   ar
    35    35    36   ar
    36    36    31   ar
    37     6     1   ar
    38    12     7   ar
    39    24    19   ar
    40    28    29    1
    41    15    16    1
@<TRIPOS>MOLECULE
*****
 38 41 0 0 0
SMALL
GASTEIGER

@<TRIPOS>ATOM
      1 C         141.0777  143.2346  165.5034 C.ar    1  UNL1       -0.0026
      2 C         141.9063  143.8136  164.3952 C.ar    1  UNL1       -0.0026
      3 C         143.4024  143.7207  164.4501 C.ar    1  UNL1       -0.0003
      4 C         144.0699  143.0487  165.6132 C.ar    1  UNL1       -0.0000
      5 C         143.2413  142.4696  166.7214 C.ar    1  UNL1       -0.0003
      6 C         141.7452  142.5626  166.6665 C.ar    1  UNL1       -0.0022
      7 C         140.9166  141.9835  167.7747 C.ar    1  UNL1        0.0041
      8 C         140.6002  142.8106  168.9855 C.ar    1  UNL1        0.0001
      9 C         139.7716  142.2315  170.0937 C.ar    1  UNL1        0.0000
     10 C         139.2593  140.8254  169.9911 C.ar    1  UNL1        0.0001
     11 C         139.5756  139.9984  168.7803 C.ar    1  UNL1        0.0045
     12 C         140.4043  140.5775  167.6721 C.ar    1  UNL1        0.0533
     13 C         140.7206  139.7505  166.4613 C.2     1  UNL1        0.2459
     14 O         139.6743  139.5300  165.4094 O.2     1  UNL1       -0.2701
     15 N         142.0833  139.1439  166.3025 N.am    1  UNL1       -0.3005
     16 H         142.7701  139.2886  166.9930 H       1  UNL1        0.1497
     17 C         142.3997  138.3169  165.0917 C.3     1  UNL1        0.0944
     18 C         143.4894  138.7456  164.1544 C.3     1  UNL1        0.0492
     19 C         143.2355  139.8387  163.1591 C.ar    1  UNL1       -0.0013
     20 C         141.8283  140.2319  162.8195 C.ar    1  UNL1       -0.0011
     21 C         141.5745  141.3250  161.8241 C.ar    1  UNL1        0.0204
     22 C         142.7278  142.0248  161.1683 C.ar    1  UNL1        0.0989
     23 N         144.1349  141.6316  161.5079 N.ar    1  UNL1       -0.2426
     24 C         144.3888  140.5385  162.5032 C.ar    1  UNL1        0.0946
     25 C         139.5816  143.3276  165.4484 C.3     1  UNL1        0.1163
     26 C         138.0640  142.5331  163.4950 C.2     1  UNL1        0.2271
     27 O         138.1355  143.9009  162.8833 O.2     1  UNL1       -0.2747
     28 N         138.7871  142.2465  164.7776 N.am    1  UNL1       -0.3001
     29 H         138.7402  141.3488  165.1791 H       1  UNL1        0.1498
     30 C         137.2695  141.4521  162.8241 C.3     1  UNL1        0.1113
     31 C         139.1759  138.9030  159.6433 C.ar    1  UNL1        0.1387
     32 C         138.9018  138.3276  161.0011 C.ar    1  UNL1        0.0366
     33 C         138.2663  139.1773  162.0614 C.ar    1  UNL1       -0.0007
     34 C         137.9050  140.6024  161.7638 C.ar    1  UNL1       -0.0129
     35 C         138.1791  141.1778  160.4060 C.ar    1  UNL1       -0.0007
     36 C         138.8146  140.3281  159.3457 C.ar    1  UNL1        0.0366
     37 C         141.1898  138.3774  158.0883 C.3     1  UNL1        0.2525
     38 O         139.8114  138.0533  158.5830 O.3     1  UNL1       -0.4714
@<TRIPOS>BOND
     1    37    38    1
     2    38    31    1
     3    31    32   ar
     4    32    33   ar
     5    33    34   ar
     6    34    30    1
     7    30    26    1
     8    26    27    2
     9    26    28   am
    10    28    25    1
    11    25     1    1
    12     1     2   ar
    13     2     3   ar
    14     3     4   ar
    15     4     5   ar
    16     5     6   ar
    17     6     7    1
    18     7     8   ar
    19     8     9   ar
    20     9    10   ar
    21    10    11   ar
    22    11    12   ar
    23    12    13    1
    24    13    14    2
    25    13    15   am
    26    15    17    1
    27    17    18    1
    28    18    19    1
    29    19    20   ar
    30    20    21   ar
    31    21    22   ar
    32    22    23   ar
    33    23    24   ar
    34    34    35   ar
    35    35    36   ar
    36    36    31   ar
    37     6     1   ar
    38    12     7   ar
    39    24    19   ar
    40    28    29    1
    41    15    16    1
@<TRIPOS>MOLECULE
*****
 38 41 0 0 0
SMALL
GASTEIGER

@<TRIPOS>ATOM
      1 C         141.6055  141.8336  167.2391 C.ar    1  UNL1       -0.0026
      2 C         142.4944  142.6772  168.1040 C.ar    1  UNL1       -0.0026
      3 C         143.2380  142.0543  169.2481 C.ar    1  UNL1       -0.0003
      4 C         143.0928  140.5877  169.5273 C.ar    1  UNL1       -0.0000
      5 C         142.2039  139.7440  168.6623 C.ar    1  UNL1       -0.0003
      6 C         141.4603  140.3669  167.5182 C.ar    1  UNL1       -0.0022
      7 C         140.5714  139.5233  166.6533 C.ar    1  UNL1        0.0041
      8 C         139.0934  139.4871  166.9067 C.ar    1  UNL1        0.0001
      9 C         138.2046  138.6435  166.0417 C.ar    1  UNL1        0.0000
     10 C         138.7938  137.8359  164.9233 C.ar    1  UNL1        0.0001
     11 C         140.2718  137.8720  164.6699 C.ar    1  UNL1        0.0045
     12 C         141.1606  138.7157  165.5349 C.ar    1  UNL1        0.0533
     13 C         142.6386  138.7519  165.2815 C.2     1  UNL1        0.2459
     14 O         143.5682  137.9584  166.1510 O.2     1  UNL1       -0.2701
     15 N         143.1869  139.5815  164.1585 N.am    1  UNL1       -0.3005
     16 H         142.5768  140.1023  163.5878 H       1  UNL1        0.1497
     17 C         144.6649  139.6177  163.9051 C.3     1  UNL1        0.0944
     18 C         145.4510  140.8541  164.2264 C.3     1  UNL1        0.0492
     19 C         144.9060  142.2042  163.8655 C.ar    1  UNL1       -0.0013
     20 C         144.5006  143.1627  164.9459 C.ar    1  UNL1       -0.0011
     21 C         143.9557  144.5128  164.5850 C.ar    1  UNL1        0.0204
     22 C         143.8161  144.9044  163.1437 C.ar    1  UNL1        0.0989
     23 N         144.2214  143.9460  162.0635 N.ar    1  UNL1       -0.2426
     24 C         144.7664  142.5959  162.4243 C.ar    1  UNL1        0.0946
     25 C         140.8619  142.4565  166.0950 C.3     1  UNL1        0.1163
     26 C         140.2259  141.7396  163.6801 C.2     1  UNL1        0.2271
     27 O         138.7863  141.6384  164.0893 O.2     1  UNL1       -0.2747
     28 N         141.2637  142.1486  164.6829 N.am    1  UNL1       -0.3001
     29 H         142.2085  142.2150  164.4143 H       1  UNL1        0.1498
     30 C         140.6276  141.4317  162.2681 C.3     1  UNL1        0.1113
     31 C         141.6697  144.7773  159.4448 C.ar    1  UNL1        0.1387
     32 C         140.9012  145.0671  160.7000 C.ar    1  UNL1        0.0366
     33 C         140.5539  143.9519  161.6411 C.ar    1  UNL1       -0.0007
     34 C         140.9750  142.5469  161.3270 C.ar    1  UNL1       -0.0129
     35 C         141.7434  142.2571  160.0718 C.ar    1  UNL1       -0.0007
     36 C         142.0908  143.3723  159.1307 C.ar    1  UNL1        0.0366
     37 C         142.0591  145.6409  157.0256 C.3     1  UNL1        0.2525
     38 O         142.0170  145.8925  158.5037 O.3     1  UNL1       -0.4714
@<TRIPOS>BOND
     1    37    38    1
     2    38    31    1
     3    31    32   ar
     4    32    33   ar
     5    33    34   ar
     6    34    30    1
     7    30    26    1
     8    26    27    2
     9    26    28   am
    10    28    25    1
    11    25     1    1
    12     1     2   ar
    13     2     3   ar
    14     3     4   ar
    15     4     5   ar
    16     5     6   ar
    17     6     7    1
    18     7     8   ar
    19     8     9   ar
    20     9    10   ar
    21    10    11   ar
    22    11    12   ar
    23    12    13    1
    24    13    14    2
    25    13    15   am
    26    15    17    1
    27    17    18    1
    28    18    19    1
    29    19    20   ar
    30    20    21   ar
    31    21    22   ar
    32    22    23   ar
    33    23    24   ar
    34    34    35   ar
    35    35    36   ar
    36    36    31   ar
    37     6     1   ar
    38    12     7   ar
    39    24    19   ar
    40    28    29    1
    41    15    16    1
@<TRIPOS>MOLECULE
*****
 38 41 0 0 0
SMALL
GASTEIGER

@<TRIPOS>ATOM
      1 C         139.7434  142.4703  165.6152 C.ar    1  UNL1       -0.0026
      2 C         139.7216  143.9693  165.6640 C.ar    1  UNL1       -0.0026
      3 C         138.5928  144.7242  165.0267 C.ar    1  UNL1       -0.0003
      4 C         137.4858  143.9800  164.3408 C.ar    1  UNL1       -0.0000
      5 C         137.5076  142.4809  164.2919 C.ar    1  UNL1       -0.0003
      6 C         138.6364  141.7260  164.9291 C.ar    1  UNL1       -0.0022
      7 C         138.6582  140.2270  164.8804 C.ar    1  UNL1        0.0041
      8 C         138.3841  139.4321  166.1225 C.ar    1  UNL1        0.0001
      9 C         138.4059  137.9331  166.0738 C.ar    1  UNL1        0.0000
     10 C         138.7018  137.2289  164.7827 C.ar    1  UNL1        0.0001
     11 C         138.9758  138.0238  163.5406 C.ar    1  UNL1        0.0045
     12 C         138.9540  139.5229  163.5894 C.ar    1  UNL1        0.0533
     13 C         139.2281  140.3178  162.3472 C.2     1  UNL1        0.2459
     14 O         138.1027  140.6762  161.4226 O.2     1  UNL1       -0.2701
     15 N         140.6277  140.7544  162.0297 N.am    1  UNL1       -0.3005
     16 H         141.3663  140.5192  162.6366 H       1  UNL1        0.1497
     17 C         140.9017  141.5493  160.7875 C.3     1  UNL1        0.0944
     18 C         140.9247  143.0479  160.8459 C.3     1  UNL1        0.0492
     19 C         141.9141  143.7490  161.7289 C.ar    1  UNL1       -0.0013
     20 C         141.4331  144.6726  162.8086 C.ar    1  UNL1       -0.0011
     21 C         142.4225  145.3737  163.6915 C.ar    1  UNL1        0.0204
     22 C         143.8928  145.1513  163.4947 C.ar    1  UNL1        0.0989
     23 N         144.3737  144.2278  162.4150 N.ar    1  UNL1       -0.2426
     24 C         143.3843  143.5267  161.5321 C.ar    1  UNL1        0.0946
     25 C         140.8722  141.7155  166.2524 C.3     1  UNL1        0.1163
     26 C         142.5391  139.9110  165.4064 C.2     1  UNL1        0.2271
     27 O         141.8011  138.8637  166.1865 O.2     1  UNL1       -0.2747
     28 N         142.0747  141.3369  165.4394 N.am    1  UNL1       -0.3001
     29 H         142.5590  142.0244  164.9274 H       1  UNL1        0.1498
     30 C         143.7414  139.5324  164.5935 C.3     1  UNL1        0.1113
     31 C         143.2905  138.5798  160.2186 C.ar    1  UNL1        0.1387
     32 C         144.1597  139.7231  160.6516 C.ar    1  UNL1        0.0366
     33 C         144.3100  140.0406  162.1098 C.ar    1  UNL1       -0.0007
     34 C         143.5911  139.2149  163.1352 C.ar    1  UNL1       -0.0129
     35 C         142.7219  138.0717  162.7023 C.ar    1  UNL1       -0.0007
     36 C         142.5716  137.7542  161.2440 C.ar    1  UNL1        0.0366
     37 C         143.1173  139.3706  157.7499 C.3     1  UNL1        0.2525
     38 O         143.1402  138.2623  158.7604 O.3     1  UNL1       -0.4714
@<TRIPOS>BOND
     1    37    38    1
     2    38    31    1
     3    31    32   ar
     4    32    33   ar
     5    33    34   ar
     6    34    30    1
     7    30    26    1
     8    26    27    2
     9    26    28   am
    10    28    25    1
    11    25     1    1
    12     1     2   ar
    13     2     3   ar
    14     3     4   ar
    15     4     5   ar
    16     5     6   ar
    17     6     7    1
    18     7     8   ar
    19     8     9   ar
    20     9    10   ar
    21    10    11   ar
    22    11    12   ar
    23    12    13    1
    24    13    14    2
    25    13    15   am
    26    15    17    1
    27    17    18    1
    28    18    19    1
    29    19    20   ar
    30    20    21   ar
    31    21    22   ar
    32    22    23   ar
    33    23    24   ar
    34    34    35   ar
    35    35    36   ar
    36    36    31   ar
    37     6     1   ar
    38    12     7   ar
    39    24    19   ar
    40    28    29    1
    41    15    16    1
@<TRIPOS>MOLECULE
*****
 38 41 0 0 0
SMALL
GASTEIGER

@<TRIPOS>ATOM
      1 C         143.3839  140.3808  165.3254 C.ar    1  UNL1       -0.0026
      2 C         144.2945  139.9683  164.2072 C.ar    1  UNL1       -0.0026
      3 C         145.2374  140.9652  163.6013 C.ar    1  UNL1       -0.0003
      4 C         145.2697  142.3746  164.1136 C.ar    1  UNL1       -0.0000
      5 C         144.3590  142.7871  165.2319 C.ar    1  UNL1       -0.0003
      6 C         143.4161  141.7902  165.8378 C.ar    1  UNL1       -0.0022
      7 C         142.5054  142.2027  166.9560 C.ar    1  UNL1        0.0041
      8 C         142.9465  142.0418  168.3807 C.ar    1  UNL1        0.0001
      9 C         142.0358  142.4543  169.4989 C.ar    1  UNL1        0.0000
     10 C         140.6840  143.0277  169.1925 C.ar    1  UNL1        0.0001
     11 C         140.2429  143.1886  167.7679 C.ar    1  UNL1        0.0045
     12 C         141.1536  142.7761  166.6497 C.ar    1  UNL1        0.0533
     13 C         140.7125  142.9369  165.2250 C.2     1  UNL1        0.2459
     14 O         139.8692  141.8792  164.5770 O.2     1  UNL1       -0.2701
     15 N         141.1148  144.1556  164.4484 N.am    1  UNL1       -0.3005
     16 H         141.6683  144.8498  164.8737 H       1  UNL1        0.1497
     17 C         140.6737  144.3165  163.0238 C.3     1  UNL1        0.0944
     18 C         141.6870  144.2956  161.9180 C.3     1  UNL1        0.0492
     19 C         142.2512  142.9897  161.4423 C.ar    1  UNL1       -0.0013
     20 C         141.5266  141.7090  161.7339 C.ar    1  UNL1       -0.0011
     21 C         142.0908  140.4031  161.2582 C.ar    1  UNL1        0.0204
     22 C         143.3795  140.3778  160.4909 C.ar    1  UNL1        0.0989
     23 N         144.1040  141.6585  160.1994 N.ar    1  UNL1       -0.2426
     24 C         143.5398  142.9644  160.6751 C.ar    1  UNL1        0.0946
     25 C         142.4410  139.3839  165.9313 C.3     1  UNL1        0.1163
     26 C         139.8910  138.9536  165.6809 C.2     1  UNL1        0.2271
     27 O         139.6556  139.5638  167.0309 O.2     1  UNL1       -0.2747
     28 N         141.2837  138.8637  165.1311 N.am    1  UNL1       -0.3001
     29 H         141.4382  138.4632  164.2451 H       1  UNL1        0.1498
     30 C         138.7338  138.4334  164.8808 C.3     1  UNL1        0.1113
     31 C         138.4746  139.3015  160.4730 C.ar    1  UNL1        0.1387
     32 C         139.2211  138.0938  160.9569 C.ar    1  UNL1        0.0366
     33 C         139.3075  137.8045  162.4262 C.ar    1  UNL1       -0.0007
     34 C         138.6474  138.7228  163.4115 C.ar    1  UNL1       -0.0129
     35 C         137.9009  139.9304  162.9276 C.ar    1  UNL1       -0.0007
     36 C         137.8145  140.2198  161.4583 C.ar    1  UNL1        0.0366
     37 C         138.1141  140.9871  158.5291 C.3     1  UNL1        0.2525
     38 O         138.3882  139.5908  159.0037 O.3     1  UNL1       -0.4714
@<TRIPOS>BOND
     1    37    38    1
     2    38    31    1
     3    31    32   ar
     4    32    33   ar
     5    33    34   ar
     6    34    30    1
     7    30    26    1
     8    26    27    2
     9    26    28   am
    10    28    25    1
    11    25     1    1
    12     1     2   ar
    13     2     3   ar
    14     3     4   ar
    15     4     5   ar
    16     5     6   ar
    17     6     7    1
    18     7     8   ar
    19     8     9   ar
    20     9    10   ar
    21    10    11   ar
    22    11    12   ar
    23    12    13    1
    24    13    14    2
    25    13    15   am
    26    15    17    1
    27    17    18    1
    28    18    19    1
    29    19    20   ar
    30    20    21   ar
    31    21    22   ar
    32    22    23   ar
    33    23    24   ar
    34    34    35   ar
    35    35    36   ar
    36    36    31   ar
    37     6     1   ar
    38    12     7   ar
    39    24    19   ar
    40    28    29    1
    41    15    16    1
@<TRIPOS>MOLECULE
*****
 38 41 0 0 0
SMALL
GASTEIGER

@<TRIPOS>ATOM
      1 C         140.2568  139.6855  161.0993 C.ar    1  UNL1       -0.0026
      2 C         140.3839  140.0646  159.6536 C.ar    1  UNL1       -0.0026
      3 C         139.1533  140.3067  158.8307 C.ar    1  UNL1       -0.0003
      4 C         137.7957  140.1697  159.4535 C.ar    1  UNL1       -0.0000
      5 C         137.6685  139.7905  160.8993 C.ar    1  UNL1       -0.0003
      6 C         138.8990  139.5484  161.7222 C.ar    1  UNL1       -0.0022
      7 C         138.7719  139.1693  163.1679 C.ar    1  UNL1        0.0041
      8 C         138.9648  137.7426  163.5888 C.ar    1  UNL1        0.0001
      9 C         138.8376  137.3634  165.0345 C.ar    1  UNL1        0.0000
     10 C         138.5176  138.4111  166.0593 C.ar    1  UNL1        0.0001
     11 C         138.3248  139.8378  165.6383 C.ar    1  UNL1        0.0045
     12 C         138.4519  140.2169  164.1926 C.ar    1  UNL1        0.0533
     13 C         138.2591  141.6437  163.7716 C.2     1  UNL1        0.2459
     14 O         137.0056  142.0516  163.0559 O.2     1  UNL1       -0.2701
     15 N         139.3198  142.6625  164.0664 N.am    1  UNL1       -0.3005
     16 H         140.1425  142.3948  164.5362 H       1  UNL1        0.1497
     17 C         139.1269  144.0893  163.6454 C.3     1  UNL1        0.0944
     18 C         140.3110  145.0021  163.5242 C.3     1  UNL1        0.0492
     19 C         141.6521  144.4451  163.1484 C.ar    1  UNL1       -0.0013
     20 C         142.8047  144.5572  164.1019 C.ar    1  UNL1       -0.0011
     21 C         144.1458  144.0002  163.7261 C.ar    1  UNL1        0.0204
     22 C         144.3342  143.3310  162.3968 C.ar    1  UNL1        0.0989
     23 N         143.1816  143.2189  161.4435 N.ar    1  UNL1       -0.2426
     24 C         141.8406  143.7759  161.8193 C.ar    1  UNL1        0.0946
     25 C         141.4873  139.4434  161.9222 C.3     1  UNL1        0.1163
     26 C         142.3797  139.9468  164.3098 C.2     1  UNL1        0.2271
     27 O         142.4658  138.4753  164.5878 O.2     1  UNL1       -0.2747
     28 N         141.8904  140.4309  162.9770 N.am    1  UNL1       -0.3001
     29 H         141.8339  141.3967  162.7945 H       1  UNL1        0.1498
     30 C         142.7828  140.9342  165.3645 C.3     1  UNL1        0.1113
     31 C         140.2183  141.4952  169.0194 C.ar    1  UNL1        0.1387
     32 C         140.7210  140.1289  168.6585 C.ar    1  UNL1        0.0366
     33 C         141.5758  139.9419  167.4402 C.ar    1  UNL1       -0.0007
     34 C         141.9280  141.1212  166.5828 C.ar    1  UNL1       -0.0129
     35 C         141.4252  142.4875  166.9437 C.ar    1  UNL1       -0.0007
     36 C         140.5704  142.6746  168.1620 C.ar    1  UNL1        0.0366
     37 C         139.4650  142.9466  171.0383 C.3     1  UNL1        0.2525
     38 O         139.3634  141.6822  170.2377 O.3     1  UNL1       -0.4714
@<TRIPOS>BOND
     1    37    38    1
     2    38    31    1
     3    31    32   ar
     4    32    33   ar
     5    33    34   ar
     6    34    30    1
     7    30    26    1
     8    26    27    2
     9    26    28   am
    10    28    25    1
    11    25     1    1
    12     1     2   ar
    13     2     3   ar
    14     3     4   ar
    15     4     5   ar
    16     5     6   ar
    17     6     7    1
    18     7     8   ar
    19     8     9   ar
    20     9    10   ar
    21    10    11   ar
    22    11    12   ar
    23    12    13    1
    24    13    14    2
    25    13    15   am
    26    15    17    1
    27    17    18    1
    28    18    19    1
    29    19    20   ar
    30    20    21   ar
    31    21    22   ar
    32    22    23   ar
    33    23    24   ar
    34    34    35   ar
    35    35    36   ar
    36    36    31   ar
    37     6     1   ar
    38    12     7   ar
    39    24    19   ar
    40    28    29    1
    41    15    16    1
