@<TRIPOS>MOLECULE
*****
 31 33 0 0 0
SMALL
GASTEIGER

@<TRIPOS>ATOM
      1 O         143.1093  139.0363  166.2884 O.2     1  UNL1       -0.2732
      2 C         141.8574  138.9609  165.4656 C.2     1  UNL1        0.2430
      3 N         140.9261  140.1353  165.4078 N.am    1  UNL1       -0.2972
      4 H         140.1044  140.0858  164.8678 H       1  UNL1        0.1500
      5 C         141.5367  137.7111  164.7007 C.3     1  UNL1        0.1759
      6 N         141.7289  137.6718  163.2136 N.am    1  UNL1       -0.2931
      7 C         140.7310  138.3343  162.3106 C.2     1  UNL1        0.2462
      8 O         139.5409  139.0360  162.8947 O.2     1  UNL1       -0.2701
      9 H         142.5100  137.2113  162.8302 H       1  UNL1        0.1502
     10 C         140.9232  138.2950  160.8234 C.ar    1  UNL1        0.0535
     11 C         139.7537  138.5137  159.9100 C.ar    1  UNL1        0.0068
     12 C         139.9459  138.4744  158.4229 C.ar    1  UNL1        0.0298
     13 C         141.3077  138.2164  157.8493 C.ar    1  UNL1        0.1401
     14 F         141.4998  138.1771  156.3621 F       1  UNL1       -0.2042
     15 C         142.4772  137.9977  158.7627 C.ar    1  UNL1        0.0298
     16 C         142.2850  138.0370  160.2498 C.ar    1  UNL1        0.0068
     17 C         141.2467  141.3852  166.1727 C.3     1  UNL1        0.1171
     18 C         142.1245  142.4356  165.5593 C.ar    1  UNL1        0.0019
     19 C         143.5954  142.4486  165.8528 C.ar    1  UNL1       -0.0022
     20 C         144.4733  143.4990  165.2394 C.ar    1  UNL1        0.0020
     21 C         143.8802  144.5362  164.3326 C.ar    1  UNL1        0.0296
     22 C         142.4091  144.5231  164.0392 C.ar    1  UNL1        0.1399
     23 F         141.8160  145.5604  163.1324 F       1  UNL1       -0.2042
     24 C         141.5313  143.4728  164.6525 C.ar    1  UNL1        0.0273
     25 C         140.6895  141.5847  167.5510 C.ar    1  UNL1        0.0019
     26 C         140.0328  140.4419  168.2672 C.ar    1  UNL1       -0.0022
     27 C         139.4756  140.6414  169.6455 C.ar    1  UNL1        0.0020
     28 C         139.5751  141.9837  170.3076 C.ar    1  UNL1        0.0296
     29 C         140.2318  143.1265  169.5915 C.ar    1  UNL1        0.1399
     30 F         140.3312  144.4687  170.2536 F       1  UNL1       -0.2042
     31 C         140.7890  142.9270  168.2132 C.ar    1  UNL1        0.0273
@<TRIPOS>BOND
     1     1     2    2
     2     2     5    1
     3     5     6    1
     4     6     7   am
     5     7     8    2
     6     7    10    1
     7    10    11   ar
     8    11    12   ar
     9    12    13   ar
    10    13    14    1
    11    13    15   ar
    12    15    16   ar
    13     2     3   am
    14     3    17    1
    15    17    18    1
    16    18    19   ar
    17    19    20   ar
    18    20    21   ar
    19    21    22   ar
    20    22    23    1
    21    22    24   ar
    22    17    25    1
    23    25    26   ar
    24    26    27   ar
    25    27    28   ar
    26    28    29   ar
    27    29    30    1
    28    29    31   ar
    29    16    10   ar
    30    24    18   ar
    31    31    25   ar
    32     6     9    1
    33     3     4    1
@<TRIPOS>MOLECULE
*****
 31 33 0 0 0
SMALL
GASTEIGER

@<TRIPOS>ATOM
      1 O         139.4563  144.1587  165.0488 O.2     1  UNL1       -0.2732
      2 C         140.8048  143.9777  164.4173 C.2     1  UNL1        0.2430
      3 N         141.7206  142.8932  164.9021 N.am    1  UNL1       -0.2972
      4 H         142.6056  142.7744  164.4876 H       1  UNL1        0.1500
      5 C         141.2374  144.8812  163.3009 C.3     1  UNL1        0.1759
      6 N         141.0981  144.4328  161.8762 N.am    1  UNL1       -0.2931
      7 C         140.1879  145.1739  160.9423 C.2     1  UNL1        0.2462
      8 O         139.4170  146.3635  161.4330 O.2     1  UNL1       -0.2701
      9 H         141.6040  143.6521  161.5542 H       1  UNL1        0.1502
     10 C         140.0485  144.7255  159.5177 C.ar    1  UNL1        0.0535
     11 C         140.4407  145.6458  158.4000 C.ar    1  UNL1        0.0068
     12 C         140.3013  145.1973  156.9754 C.ar    1  UNL1        0.0298
     13 C         139.7697  143.8287  156.6685 C.ar    1  UNL1        0.1401
     14 F         139.6303  143.3803  155.2439 F       1  UNL1       -0.2042
     15 C         139.3774  142.9085  157.7862 C.ar    1  UNL1        0.0298
     16 C         139.5168  143.3569  159.2108 C.ar    1  UNL1        0.0068
     17 C         141.2879  141.9896  166.0186 C.3     1  UNL1        0.1171
     18 C         141.5824  142.3616  167.4415 C.ar    1  UNL1        0.0019
     19 C         140.5014  142.9429  168.3038 C.ar    1  UNL1       -0.0022
     20 C         140.7959  143.3149  169.7268 C.ar    1  UNL1        0.0020
     21 C         142.1714  143.1058  170.2875 C.ar    1  UNL1        0.0296
     22 C         143.2524  142.5245  169.4251 C.ar    1  UNL1        0.1399
     23 F         144.6279  142.3153  169.9857 F       1  UNL1       -0.2042
     24 C         142.9579  142.1524  168.0021 C.ar    1  UNL1        0.0273
     25 C         140.5607  140.7140  165.7120 C.ar    1  UNL1        0.0019
     26 C         139.0614  140.6787  165.7453 C.ar    1  UNL1       -0.0022
     27 C         138.3343  139.4031  165.4387 C.ar    1  UNL1        0.0020
     28 C         139.1064  138.1627  165.0988 C.ar    1  UNL1        0.0296
     29 C         140.6055  138.1980  165.0655 C.ar    1  UNL1        0.1399
     30 F         141.3775  136.9577  164.7257 F       1  UNL1       -0.2042
     31 C         141.3327  139.4736  165.3721 C.ar    1  UNL1        0.0273
@<TRIPOS>BOND
     1     1     2    2
     2     2     5    1
     3     5     6    1
     4     6     7   am
     5     7     8    2
     6     7    10    1
     7    10    11   ar
     8    11    12   ar
     9    12    13   ar
    10    13    14    1
    11    13    15   ar
    12    15    16   ar
    13     2     3   am
    14     3    17    1
    15    17    18    1
    16    18    19   ar
    17    19    20   ar
    18    20    21   ar
    19    21    22   ar
    20    22    23    1
    21    22    24   ar
    22    17    25    1
    23    25    26   ar
    24    26    27   ar
    25    27    28   ar
    26    28    29   ar
    27    29    30    1
    28    29    31   ar
    29    16    10   ar
    30    24    18   ar
    31    31    25   ar
    32     6     9    1
    33     3     4    1
@<TRIPOS>MOLECULE
*****
 31 33 0 0 0
SMALL
GASTEIGER

@<TRIPOS>ATOM
      1 O         138.5053  143.5198  165.0988 O.2     1  UNL1       -0.2732
      2 C         139.8481  143.8669  164.5273 C.2     1  UNL1        0.2430
      3 N         141.0792  143.1732  165.0303 N.am    1  UNL1       -0.2972
      4 H         141.9605  143.4010  164.6552 H       1  UNL1        0.1500
      5 C         139.9596  144.9076  163.4529 C.3     1  UNL1        0.1759
      6 N         140.6529  144.5826  162.1630 N.am    1  UNL1       -0.2931
      7 C         140.3101  145.3414  160.9154 C.2     1  UNL1        0.2462
      8 O         139.2739  146.4251  160.9575 O.2     1  UNL1       -0.2701
      9 H         141.3330  143.8713  162.1353 H       1  UNL1        0.1502
     10 C         141.0034  145.0164  159.6255 C.ar    1  UNL1        0.0535
     11 C         140.6189  145.7342  158.3658 C.ar    1  UNL1        0.0068
     12 C         141.3122  145.4092  157.0760 C.ar    1  UNL1        0.0298
     13 C         142.3900  144.3664  157.0458 C.ar    1  UNL1        0.1401
     14 F         143.0833  144.0414  155.7559 F       1  UNL1       -0.2042
     15 C         142.7745  143.6486  158.3055 C.ar    1  UNL1        0.0298
     16 C         142.0812  143.9736  159.5953 C.ar    1  UNL1        0.0068
     17 C         140.9677  142.1324  166.1048 C.3     1  UNL1        0.1171
     18 C         140.4622  140.7604  165.7703 C.ar    1  UNL1        0.0019
     19 C         141.2256  139.8922  164.8146 C.ar    1  UNL1       -0.0022
     20 C         140.7201  138.5201  164.4801 C.ar    1  UNL1        0.0020
     21 C         139.4512  138.0162  165.1014 C.ar    1  UNL1        0.0296
     22 C         138.6878  138.8845  166.0571 C.ar    1  UNL1        0.1399
     23 F         137.4189  138.3806  166.6784 F       1  UNL1       -0.2042
     24 C         139.1933  140.2565  166.3916 C.ar    1  UNL1        0.0273
     25 C         141.3617  142.4638  167.5137 C.ar    1  UNL1        0.0019
     26 C         140.3662  143.0935  168.4424 C.ar    1  UNL1       -0.0022
     27 C         140.7602  143.4249  169.8513 C.ar    1  UNL1        0.0020
     28 C         142.1497  143.1265  170.3314 C.ar    1  UNL1        0.0296
     29 C         143.1451  142.4968  169.4027 C.ar    1  UNL1        0.1399
     30 F         144.5345  142.1985  169.8828 F       1  UNL1       -0.2042
     31 C         142.7511  142.1655  167.9938 C.ar    1  UNL1        0.0273
@<TRIPOS>BOND
     1     1     2    2
     2     2     5    1
     3     5     6    1
     4     6     7   am
     5     7     8    2
     6     7    10    1
     7    10    11   ar
     8    11    12   ar
     9    12    13   ar
    10    13    14    1
    11    13    15   ar
    12    15    16   ar
    13     2     3   am
    14     3    17    1
    15    17    18    1
    16    18    19   ar
    17    19    20   ar
    18    20    21   ar
    19    21    22   ar
    20    22    23    1
    21    22    24   ar
    22    17    25    1
    23    25    26   ar
    24    26    27   ar
    25    27    28   ar
    26    28    29   ar
    27    29    30    1
    28    29    31   ar
    29    16    10   ar
    30    24    18   ar
    31    31    25   ar
    32     6     9    1
    33     3     4    1
@<TRIPOS>MOLECULE
*****
 31 33 0 0 0
SMALL
GASTEIGER

@<TRIPOS>ATOM
      1 O         137.4841  142.1948  164.6507 O.2     1  UNL1       -0.2732
      2 C         138.6823  142.9858  164.2167 C.2     1  UNL1        0.2430
      3 N         140.0526  142.5843  164.6762 N.am    1  UNL1       -0.2972
      4 H         140.8391  143.1035  164.3913 H       1  UNL1        0.1500
      5 C         138.5104  144.1783  163.3232 C.3     1  UNL1        0.1759
      6 N         139.0891  144.1683  161.9393 N.am    1  UNL1       -0.2931
      7 C         140.5200  144.5619  161.7219 C.2     1  UNL1        0.2462
      8 O         141.3724  144.9655  162.8884 O.2     1  UNL1       -0.2701
      9 H         138.5296  143.9034  161.1738 H       1  UNL1        0.1502
     10 C         141.0987  144.5519  160.3380 C.ar    1  UNL1        0.0535
     11 C         142.2452  143.6415  160.0111 C.ar    1  UNL1        0.0068
     12 C         142.8238  143.6316  158.6272 C.ar    1  UNL1        0.0298
     13 C         142.2560  144.5319  157.5704 C.ar    1  UNL1        0.1401
     14 F         142.8347  144.5219  156.1865 F       1  UNL1       -0.2042
     15 C         141.1096  145.4423  157.8974 C.ar    1  UNL1        0.0298
     16 C         140.5310  145.4523  159.2812 C.ar    1  UNL1        0.0068
     17 C         140.2247  141.3918  165.5697 C.3     1  UNL1        0.1171
     18 C         140.4957  140.0418  164.9748 C.ar    1  UNL1        0.0019
     19 C         141.8691  139.4453  165.0632 C.ar    1  UNL1       -0.0022
     20 C         142.1402  138.0952  164.4683 C.ar    1  UNL1        0.0020
     21 C         141.0378  137.3417  163.7850 C.ar    1  UNL1        0.0296
     22 C         139.6643  137.9382  163.6966 C.ar    1  UNL1        0.1399
     23 F         138.5619  137.1847  163.0133 F       1  UNL1       -0.2042
     24 C         139.3933  139.2883  164.2915 C.ar    1  UNL1        0.0273
     25 C         140.1257  141.5494  167.0581 C.ar    1  UNL1        0.0019
     26 C         139.6522  140.4044  167.9037 C.ar    1  UNL1       -0.0022
     27 C         139.5532  140.5619  169.3921 C.ar    1  UNL1        0.0020
     28 C         139.9277  141.8645  170.0349 C.ar    1  UNL1        0.0296
     29 C         140.4011  143.0094  169.1894 C.ar    1  UNL1        0.1399
     30 F         140.7756  144.3119  169.8322 F       1  UNL1       -0.2042
     31 C         140.5001  142.8518  167.7010 C.ar    1  UNL1        0.0273
@<TRIPOS>BOND
     1     1     2    2
     2     2     5    1
     3     5     6    1
     4     6     7   am
     5     7     8    2
     6     7    10    1
     7    10    11   ar
     8    11    12   ar
     9    12    13   ar
    10    13    14    1
    11    13    15   ar
    12    15    16   ar
    13     2     3   am
    14     3    17    1
    15    17    18    1
    16    18    19   ar
    17    19    20   ar
    18    20    21   ar
    19    21    22   ar
    20    22    23    1
    21    22    24   ar
    22    17    25    1
    23    25    26   ar
    24    26    27   ar
    25    27    28   ar
    26    28    29   ar
    27    29    30    1
    28    29    31   ar
    29    16    10   ar
    30    24    18   ar
    31    31    25   ar
    32     6     9    1
    33     3     4    1
@<TRIPOS>MOLECULE
*****
 31 33 0 0 0
SMALL
GASTEIGER

@<TRIPOS>ATOM
      1 O         144.5055  143.3446  164.9820 O.2     1  UNL1       -0.2732
      2 C         143.1918  143.8686  164.4823 C.2     1  UNL1        0.2430
      3 N         141.9093  143.2494  164.9532 N.am    1  UNL1       -0.2972
      4 H         141.0471  143.5934  164.6252 H       1  UNL1        0.1500
      5 C         143.1606  145.0118  163.5117 C.3     1  UNL1        0.1759
      6 N         142.6844  144.7901  162.1067 N.am    1  UNL1       -0.2931
      7 C         141.2151  144.7861  161.8046 C.2     1  UNL1        0.2462
      8 O         140.2221  145.0039  162.9075 O.2     1  UNL1       -0.2701
      9 H         143.3361  144.6471  161.3828 H       1  UNL1        0.1502
     10 C         140.7389  144.5643  160.3996 C.ar    1  UNL1        0.0535
     11 C         139.7787  143.4516  160.1000 C.ar    1  UNL1        0.0068
     12 C         139.3025  143.2299  158.6950 C.ar    1  UNL1        0.0298
     13 C         139.7865  144.1209  157.5896 C.ar    1  UNL1        0.1401
     14 F         139.3102  143.8991  156.1846 F       1  UNL1       -0.2042
     15 C         140.7467  145.2336  157.8892 C.ar    1  UNL1        0.0298
     16 C         141.2229  145.4553  159.2942 C.ar    1  UNL1        0.0068
     17 C         141.9405  142.1062  165.9238 C.3     1  UNL1        0.1171
     18 C         142.0310  142.3750  167.3967 C.ar    1  UNL1        0.0019
     19 C         143.3355  142.1907  168.1139 C.ar    1  UNL1       -0.0022
     20 C         143.4261  142.4595  169.5868 C.ar    1  UNL1        0.0020
     21 C         142.2123  142.9128  170.3426 C.ar    1  UNL1        0.0296
     22 C         140.9078  143.0972  169.6253 C.ar    1  UNL1        0.1399
     23 F         139.6939  143.5505  170.3810 F       1  UNL1       -0.2042
     24 C         140.8172  142.8283  168.1524 C.ar    1  UNL1        0.0273
     25 C         141.8810  140.6940  165.4215 C.ar    1  UNL1        0.0019
     26 C         143.0708  140.0915  164.7349 C.ar    1  UNL1       -0.0022
     27 C         143.0114  138.6794  164.2325 C.ar    1  UNL1        0.0020
     28 C         141.7621  137.8698  164.4168 C.ar    1  UNL1        0.0296
     29 C         140.5723  138.4723  165.1033 C.ar    1  UNL1        0.1399
     30 F         139.3231  137.6627  165.2875 F       1  UNL1       -0.2042
     31 C         140.6318  139.8844  165.6057 C.ar    1  UNL1        0.0273
@<TRIPOS>BOND
     1     1     2    2
     2     2     5    1
     3     5     6    1
     4     6     7   am
     5     7     8    2
     6     7    10    1
     7    10    11   ar
     8    11    12   ar
     9    12    13   ar
    10    13    14    1
    11    13    15   ar
    12    15    16   ar
    13     2     3   am
    14     3    17    1
    15    17    18    1
    16    18    19   ar
    17    19    20   ar
    18    20    21   ar
    19    21    22   ar
    20    22    23    1
    21    22    24   ar
    22    17    25    1
    23    25    26   ar
    24    26    27   ar
    25    27    28   ar
    26    28    29   ar
    27    29    30    1
    28    29    31   ar
    29    16    10   ar
    30    24    18   ar
    31    31    25   ar
    32     6     9    1
    33     3     4    1
@<TRIPOS>MOLECULE
*****
 31 33 0 0 0
SMALL
GASTEIGER

@<TRIPOS>ATOM
      1 O         137.5405  142.2965  164.5820 O.2     1  UNL1       -0.2732
      2 C         138.7651  143.0721  164.1962 C.2     1  UNL1        0.2430
      3 N         140.1143  142.6352  164.6848 N.am    1  UNL1       -0.2972
      4 H         140.9181  143.1443  164.4316 H       1  UNL1        0.1500
      5 C         138.6405  144.2846  163.3220 C.3     1  UNL1        0.1759
      6 N         139.1928  144.2637  161.9275 N.am    1  UNL1       -0.2931
      7 C         140.6423  144.5683  161.6903 C.2     1  UNL1        0.2462
      8 O         141.5394  144.8938  162.8475 O.2     1  UNL1       -0.2701
      9 H         138.6040  144.0501  161.1680 H       1  UNL1        0.1502
     10 C         141.1946  144.5475  160.2958 C.ar    1  UNL1        0.0535
     11 C         140.6089  145.4418  159.2436 C.ar    1  UNL1        0.0068
     12 C         141.1612  145.4209  157.8492 C.ar    1  UNL1        0.0298
     13 C         142.2993  144.5057  157.5070 C.ar    1  UNL1        0.1401
     14 F         142.8517  144.4848  156.1125 F       1  UNL1       -0.2042
     15 C         142.8851  143.6114  158.5591 C.ar    1  UNL1        0.0298
     16 C         142.3327  143.6323  159.9535 C.ar    1  UNL1        0.0068
     17 C         140.2390  141.4227  165.5591 C.3     1  UNL1        0.1171
     18 C         140.1239  141.5570  167.0486 C.ar    1  UNL1        0.0019
     19 C         139.6530  140.3952  167.8722 C.ar    1  UNL1       -0.0022
     20 C         139.5379  140.5295  169.3618 C.ar    1  UNL1        0.0020
     21 C         139.8936  141.8257  170.0277 C.ar    1  UNL1        0.0296
     22 C         140.3645  142.9875  169.2039 C.ar    1  UNL1        0.1399
     23 F         140.7203  144.2837  169.8698 F       1  UNL1       -0.2042
     24 C         140.4796  142.8532  167.7144 C.ar    1  UNL1        0.0273
     25 C         140.4787  140.0759  164.9438 C.ar    1  UNL1        0.0019
     26 C         141.8536  139.4762  164.9638 C.ar    1  UNL1       -0.0022
     27 C         142.0933  138.1294  164.3485 C.ar    1  UNL1        0.0020
     28 C         140.9583  137.3822  163.7132 C.ar    1  UNL1        0.0296
     29 C         139.5835  137.9819  163.6932 C.ar    1  UNL1        0.1399
     30 F         138.4486  137.2348  163.0580 F       1  UNL1       -0.2042
     31 C         139.3438  139.3287  164.3085 C.ar    1  UNL1        0.0273
@<TRIPOS>BOND
     1     1     2    2
     2     2     5    1
     3     5     6    1
     4     6     7   am
     5     7     8    2
     6     7    10    1
     7    10    11   ar
     8    11    12   ar
     9    12    13   ar
    10    13    14    1
    11    13    15   ar
    12    15    16   ar
    13     2     3   am
    14     3    17    1
    15    17    18    1
    16    18    19   ar
    17    19    20   ar
    18    20    21   ar
    19    21    22   ar
    20    22    23    1
    21    22    24   ar
    22    17    25    1
    23    25    26   ar
    24    26    27   ar
    25    27    28   ar
    26    28    29   ar
    27    29    30    1
    28    29    31   ar
    29    16    10   ar
    30    24    18   ar
    31    31    25   ar
    32     6     9    1
    33     3     4    1
@<TRIPOS>MOLECULE
*****
 31 33 0 0 0
SMALL
GASTEIGER

@<TRIPOS>ATOM
      1 O         144.2378  143.0218  164.9992 O.2     1  UNL1       -0.2732
      2 C         144.1835  141.6295  164.4438 C.2     1  UNL1        0.2430
      3 N         143.1379  140.6692  164.9279 N.am    1  UNL1       -0.2972
      4 H         143.1022  139.7553  164.5634 H       1  UNL1        0.1500
      5 C         145.1749  141.1974  163.4044 C.3     1  UNL1        0.1759
      6 N         144.7284  140.9706  161.9904 N.am    1  UNL1       -0.2931
      7 C         144.1178  139.6579  161.5982 C.2     1  UNL1        0.2462
      8 O         143.9537  138.5719  162.6198 O.2     1  UNL1       -0.2701
      9 H         144.8361  141.6833  161.3199 H       1  UNL1        0.1502
     10 C         143.6713  139.4311  160.1842 C.ar    1  UNL1        0.0535
     11 C         143.8497  140.5113  159.1589 C.ar    1  UNL1        0.0068
     12 C         143.4032  140.2845  157.7450 C.ar    1  UNL1        0.0298
     13 C         142.7783  138.9774  157.3564 C.ar    1  UNL1        0.1401
     14 F         142.3318  138.7505  155.9424 F       1  UNL1       -0.2042
     15 C         142.5999  137.8971  158.3817 C.ar    1  UNL1        0.0298
     16 C         143.0464  138.1240  159.7956 C.ar    1  UNL1        0.0068
     17 C         142.1464  141.1012  165.9674 C.3     1  UNL1        0.1171
     18 C         140.8294  141.6857  165.5505 C.ar    1  UNL1        0.0019
     19 C         139.7105  140.7834  165.1217 C.ar    1  UNL1       -0.0022
     20 C         138.3934  141.3678  164.7048 C.ar    1  UNL1        0.0020
     21 C         138.1952  142.8546  164.7169 C.ar    1  UNL1        0.0296
     22 C         139.3141  143.7570  165.1458 C.ar    1  UNL1        0.1399
     23 F         139.1160  145.2438  165.1578 F       1  UNL1       -0.2042
     24 C         140.6312  143.1725  165.5626 C.ar    1  UNL1        0.0273
     25 C         142.4720  140.9487  167.4236 C.ar    1  UNL1        0.0019
     26 C         142.9611  142.1286  168.2103 C.ar    1  UNL1       -0.0022
     27 C         143.2867  141.9761  169.6666 C.ar    1  UNL1        0.0020
     28 C         143.1233  140.6438  170.3362 C.ar    1  UNL1        0.0296
     29 C         142.6342  139.4640  169.5495 C.ar    1  UNL1        0.1399
     30 F         142.4708  138.1318  170.2190 F       1  UNL1       -0.2042
     31 C         142.3086  139.6165  168.0932 C.ar    1  UNL1        0.0273
@<TRIPOS>BOND
     1     1     2    2
     2     2     5    1
     3     5     6    1
     4     6     7   am
     5     7     8    2
     6     7    10    1
     7    10    11   ar
     8    11    12   ar
     9    12    13   ar
    10    13    14    1
    11    13    15   ar
    12    15    16   ar
    13     2     3   am
    14     3    17    1
    15    17    18    1
    16    18    19   ar
    17    19    20   ar
    18    20    21   ar
    19    21    22   ar
    20    22    23    1
    21    22    24   ar
    22    17    25    1
    23    25    26   ar
    24    26    27   ar
    25    27    28   ar
    26    28    29   ar
    27    29    30    1
    28    29    31   ar
    29    16    10   ar
    30    24    18   ar
    31    31    25   ar
    32     6     9    1
    33     3     4    1
@<TRIPOS>MOLECULE
*****
 31 33 0 0 0
SMALL
GASTEIGER

@<TRIPOS>ATOM
      1 O         139.3977  140.9257  165.4716 O.2     1  UNL1       -0.2732
      2 C         139.6471  142.3424  165.0463 C.2     1  UNL1        0.2430
      3 N         140.9316  143.0219  165.4182 N.am    1  UNL1       -0.2972
      4 H         141.0953  143.9517  165.1391 H       1  UNL1        0.1500
      5 C         138.6121  143.0795  164.2493 C.3     1  UNL1        0.1759
      6 N         138.7323  143.1600  162.7562 N.am    1  UNL1       -0.2931
      7 C         139.7278  144.0932  162.1332 C.2     1  UNL1        0.2462
      8 O         140.6030  144.9459  163.0032 O.2     1  UNL1       -0.2701
      9 H         138.1579  142.6004  162.1852 H       1  UNL1        0.1502
     10 C         139.8480  144.1738  160.6401 C.ar    1  UNL1        0.0535
     11 C         140.4339  145.3971  159.9998 C.ar    1  UNL1        0.0068
     12 C         140.5541  145.4776  158.5068 C.ar    1  UNL1        0.0298
     13 C         140.0884  144.3348  157.6542 C.ar    1  UNL1        0.1401
     14 F         140.2086  144.4154  156.1611 F       1  UNL1       -0.2042
     15 C         139.5024  143.1115  158.2945 C.ar    1  UNL1        0.0298
     16 C         139.3823  143.0309  159.7875 C.ar    1  UNL1        0.0068
     17 C         141.9667  142.2848  166.2153 C.3     1  UNL1        0.1171
     18 C         141.9937  142.4124  167.7096 C.ar    1  UNL1        0.0019
     19 C         143.2905  142.2747  168.4507 C.ar    1  UNL1       -0.0022
     20 C         143.3175  142.4023  169.9451 C.ar    1  UNL1        0.0020
     21 C         142.0477  142.6675  170.6982 C.ar    1  UNL1        0.0296
     22 C         140.7508  142.8052  169.9570 C.ar    1  UNL1        0.1399
     23 F         139.4810  143.0704  170.7102 F       1  UNL1       -0.2042
     24 C         140.7239  142.6776  168.4627 C.ar    1  UNL1        0.0273
     25 C         142.9748  141.4202  165.5180 C.ar    1  UNL1        0.0019
     26 C         142.8422  139.9267  165.5649 C.ar    1  UNL1       -0.0022
     27 C         143.8503  139.0621  164.8676 C.ar    1  UNL1        0.0020
     28 C         144.9909  139.6909  164.1235 C.ar    1  UNL1        0.0296
     29 C         145.1234  141.1842  164.0767 C.ar    1  UNL1        0.1399
     30 F         146.2640  141.8129  163.3326 F       1  UNL1       -0.2042
     31 C         144.1154  142.0489  164.7739 C.ar    1  UNL1        0.0273
@<TRIPOS>BOND
     1     1     2    2
     2     2     5    1
     3     5     6    1
     4     6     7   am
     5     7     8    2
     6     7    10    1
     7    10    11   ar
     8    11    12   ar
     9    12    13   ar
    10    13    14    1
    11    13    15   ar
    12    15    16   ar
    13     2     3   am
    14     3    17    1
    15    17    18    1
    16    18    19   ar
    17    19    20   ar
    18    20    21   ar
    19    21    22   ar
    20    22    23    1
    21    22    24   ar
    22    17    25    1
    23    25    26   ar
    24    26    27   ar
    25    27    28   ar
    26    28    29   ar
    27    29    30    1
    28    29    31   ar
    29    16    10   ar
    30    24    18   ar
    31    31    25   ar
    32     6     9    1
    33     3     4    1
@<TRIPOS>MOLECULE
*****
 31 33 0 0 0
SMALL
GASTEIGER

@<TRIPOS>ATOM
      1 O         144.0375  143.2034  164.8818 O.2     1  UNL1       -0.2732
      2 C         144.0889  141.7889  164.3853 C.2     1  UNL1        0.2430
      3 N         143.1283  140.7700  164.9228 N.am    1  UNL1       -0.2972
      4 H         143.1621  139.8416  164.5969 H       1  UNL1        0.1500
      5 C         145.1010  141.3934  163.3513 C.3     1  UNL1        0.1759
      6 N         144.6597  141.0730  161.9539 N.am    1  UNL1       -0.2931
      7 C         144.1212  139.7107  161.6312 C.2     1  UNL1        0.2462
      8 O         144.0238  138.6688  162.7059 O.2     1  UNL1       -0.2701
      9 H         144.7236  141.7568  161.2485 H       1  UNL1        0.1502
     10 C         143.6799  139.3903  160.2338 C.ar    1  UNL1        0.0535
     11 C         143.1005  138.0427  159.9207 C.ar    1  UNL1        0.0068
     12 C         142.6592  137.7223  158.5233 C.ar    1  UNL1        0.0298
     13 C         142.7974  138.7497  157.4391 C.ar    1  UNL1        0.1401
     14 F         142.3561  138.4293  156.0417 F       1  UNL1       -0.2042
     15 C         143.3768  140.0973  157.7522 C.ar    1  UNL1        0.0298
     16 C         143.8180  140.4176  159.1496 C.ar    1  UNL1        0.0068
     17 C         142.1162  141.1655  165.9568 C.3     1  UNL1        0.1171
     18 C         142.4269  140.9946  167.4143 C.ar    1  UNL1        0.0019
     19 C         142.0701  139.7157  168.1122 C.ar    1  UNL1       -0.0022
     20 C         142.3808  139.5448  169.5697 C.ar    1  UNL1        0.0020
     21 C         143.0482  140.6528  170.3293 C.ar    1  UNL1        0.0296
     22 C         143.4049  141.9317  169.6313 C.ar    1  UNL1        0.1399
     23 F         144.0723  143.0397  170.3908 F       1  UNL1       -0.2042
     24 C         143.0943  142.1026  168.1738 C.ar    1  UNL1        0.0273
     25 C         140.7934  141.7319  165.5333 C.ar    1  UNL1        0.0019
     26 C         139.7093  140.8190  165.0419 C.ar    1  UNL1       -0.0022
     27 C         138.3865  141.3854  164.6184 C.ar    1  UNL1        0.0020
     28 C         138.1478  142.8648  164.6863 C.ar    1  UNL1        0.0296
     29 C         139.2318  143.7776  165.1777 C.ar    1  UNL1        0.1399
     30 F         138.9930  145.2569  165.2456 F       1  UNL1       -0.2042
     31 C         140.5546  143.2112  165.6012 C.ar    1  UNL1        0.0273
@<TRIPOS>BOND
     1     1     2    2
     2     2     5    1
     3     5     6    1
     4     6     7   am
     5     7     8    2
     6     7    10    1
     7    10    11   ar
     8    11    12   ar
     9    12    13   ar
    10    13    14    1
    11    13    15   ar
    12    15    16   ar
    13     2     3   am
    14     3    17    1
    15    17    18    1
    16    18    19   ar
    17    19    20   ar
    18    20    21   ar
    19    21    22   ar
    20    22    23    1
    21    22    24   ar
    22    17    25    1
    23    25    26   ar
    24    26    27   ar
    25    27    28   ar
    26    28    29   ar
    27    29    30    1
    28    29    31   ar
    29    16    10   ar
    30    24    18   ar
    31    31    25   ar
    32     6     9    1
    33     3     4    1
