@<TRIPOS>MOLECULE
*****
 30 34 0 0 0
SMALL
GASTEIGER

@<TRIPOS>ATOM
      1 N         143.6494  142.2817  165.5721 N.pl3   1  UNL1       -0.3133
      2 C         142.8267  141.9780  166.7891 C.2     1  UNL1        0.2770
      3 N         141.5749  141.1524  166.8234 N.2     1  UNL1       -0.2204
      4 C         141.0859  141.1108  168.2410 C.3     1  UNL1        0.1537
      5 C         142.0355  141.9107  169.0825 C.3     1  UNL1        0.2350
      6 O         143.1113  142.4467  168.1853 O.2     1  UNL1       -0.4478
      7 C         140.2274  140.3469  167.2767 C.ar    1  UNL1        0.0367
      8 C         140.5928  140.2990  165.8227 C.ar    1  UNL1        0.0153
      9 C         139.7343  139.5351  164.8584 C.ar    1  UNL1        0.0506
     10 C         138.5106  138.8193  165.3483 C.ar    1  UNL1        0.0178
     11 C         138.1453  138.8672  166.8024 C.ar    1  UNL1        0.0379
     12 C         139.0037  139.6310  167.7665 C.ar    1  UNL1        0.1364
     13 O         138.6384  139.6790  169.2206 O.3     1  UNL1       -0.4756
     14 C         139.4968  140.4428  170.1848 C.3     1  UNL1        0.2074
     15 C         140.7205  141.1587  169.6950 C.3     1  UNL1        0.0666
     16 C         141.9227  142.0130  169.9689 C.3     1  UNL1        0.0061
     17 C         141.0052  141.6274  171.0911 C.3     1  UNL1        0.0061
     18 H         143.3796  141.9267  164.6944 H       1  UNL1        0.1466
     19 H         144.4592  142.8361  165.6512 H       1  UNL1        0.1466
     20 N         140.0997  139.4872  163.4044 N.am    1  UNL1       -0.2779
     21 C         140.7908  138.2796  162.8442 C.2     1  UNL1        0.2855
     22 O         141.1166  137.1198  163.7379 O.2     1  UNL1       -0.2664
     23 H         139.8859  140.2484  162.8178 H       1  UNL1        0.1553
     24 C         141.1562  138.2316  161.3902 C.ar    1  UNL1        0.2173
     25 N         142.5302  137.7950  160.9761 N.ar    1  UNL1       -0.2207
     26 C         142.8955  137.7471  159.5220 C.ar    1  UNL1        0.1089
     27 C         141.8868  138.1358  158.4821 C.ar    1  UNL1        0.0729
     28 BR        142.2521  138.0879  157.0280 Br      1  UNL1       -0.0458
     29 C         140.5128  138.5724  158.8961 C.ar    1  UNL1        0.1089
     30 N         140.1475  138.6203  160.3502 N.ar    1  UNL1       -0.2207
@<TRIPOS>BOND
     1     1     2    1
     2     2     3    2
     3     3     4    1
     4     4     5    1
     5     5     6    1
     6     4     7    1
     7     7     8   ar
     8     8     9   ar
     9     9    20    1
    10    20    21   am
    11    21    22    2
    12    21    24    1
    13    24    25   ar
    14    25    26   ar
    15    26    27   ar
    16    27    28    1
    17    27    29   ar
    18    29    30   ar
    19     9    10   ar
    20    10    11   ar
    21    11    12   ar
    22    12    13    1
    23    13    14    1
    24    14    15    1
    25    15    16    1
    26    16    17    1
    27     6     2    1
    28    12     7   ar
    29    17    15    1
    30    15     4    1
    31    30    24   ar
    32     1    18    1
    33     1    19    1
    34    20    23    1
@<TRIPOS>MOLECULE
*****
 30 34 0 0 0
SMALL
GASTEIGER

@<TRIPOS>ATOM
      1 N         143.9671  145.0863  162.6361 N.pl3   1  UNL1       -0.3133
      2 C         142.5187  144.8063  162.9081 C.2     1  UNL1        0.2770
      3 N         141.5497  144.1707  161.9559 N.2     1  UNL1       -0.2204
      4 C         140.2172  144.0844  162.6394 C.3     1  UNL1        0.1537
      5 C         140.3629  144.6667  164.0141 C.3     1  UNL1        0.2350
      6 O         141.7853  145.1129  164.1801 O.2     1  UNL1       -0.4478
      7 C         140.2238  143.5345  161.2438 C.ar    1  UNL1        0.0367
      8 C         141.4877  143.5534  160.4362 C.ar    1  UNL1        0.0153
      9 C         141.4942  143.0034  159.0406 C.ar    1  UNL1        0.0506
     10 C         140.2369  142.4347  158.4527 C.ar    1  UNL1        0.0178
     11 C         138.9730  142.4158  159.2604 C.ar    1  UNL1        0.0379
     12 C         138.9665  142.9657  160.6559 C.ar    1  UNL1        0.1364
     13 O         137.7026  142.9469  161.4636 O.3     1  UNL1       -0.4756
     14 C         137.6961  143.4967  162.8591 C.3     1  UNL1        0.2074
     15 C         138.9534  144.0655  163.4471 C.3     1  UNL1        0.0666
     16 C         139.6755  144.7114  164.5922 C.3     1  UNL1        0.0061
     17 C         138.2199  144.3721  164.7191 C.3     1  UNL1        0.0061
     18 H         144.3597  144.8471  161.7655 H       1  UNL1        0.1466
     19 H         144.5252  145.5091  163.3282 H       1  UNL1        0.1466
     20 N         142.7581  143.0223  158.2330 N.am    1  UNL1       -0.2779
     21 C         143.6868  141.8448  158.2658 C.2     1  UNL1        0.2855
     22 O         143.3516  140.6484  159.1062 O.2     1  UNL1       -0.2664
     23 H         142.9781  143.8076  157.6814 H       1  UNL1        0.1553
     24 C         144.9506  141.8637  157.4582 C.ar    1  UNL1        0.2173
     25 N         146.0965  142.7354  157.8788 N.ar    1  UNL1       -0.2207
     26 C         147.3604  142.7543  157.0712 C.ar    1  UNL1        0.1089
     27 C         147.4784  141.9014  155.8429 C.ar    1  UNL1        0.0729
     28 BR        148.7422  141.9203  155.0353 Br      1  UNL1       -0.0458
     29 C         146.3324  141.0297  155.4222 C.ar    1  UNL1        0.1089
     30 N         145.0686  141.0108  156.2299 N.ar    1  UNL1       -0.2207
@<TRIPOS>BOND
     1     1     2    1
     2     2     3    2
     3     3     4    1
     4     4     5    1
     5     5     6    1
     6     4     7    1
     7     7     8   ar
     8     8     9   ar
     9     9    20    1
    10    20    21   am
    11    21    22    2
    12    21    24    1
    13    24    25   ar
    14    25    26   ar
    15    26    27   ar
    16    27    28    1
    17    27    29   ar
    18    29    30   ar
    19     9    10   ar
    20    10    11   ar
    21    11    12   ar
    22    12    13    1
    23    13    14    1
    24    14    15    1
    25    15    16    1
    26    16    17    1
    27     6     2    1
    28    12     7   ar
    29    17    15    1
    30    15     4    1
    31    30    24   ar
    32     1    18    1
    33     1    19    1
    34    20    23    1
@<TRIPOS>MOLECULE
*****
 30 34 0 0 0
SMALL
GASTEIGER

@<TRIPOS>ATOM
      1 N         143.2341  142.7167  164.7666 N.pl3   1  UNL1       -0.3133
      2 C         142.7736  142.2690  166.1222 C.2     1  UNL1        0.2770
      3 N         141.5606  141.4351  166.4103 N.2     1  UNL1       -0.2204
      4 C         141.4827  141.2273  167.8939 C.3     1  UNL1        0.1537
      5 C         142.6476  141.9327  168.5225 C.3     1  UNL1        0.2350
      6 O         143.4455  142.5765  167.4276 O.2     1  UNL1       -0.4478
      7 C         140.3722  140.5725  167.1269 C.ar    1  UNL1        0.0367
      8 C         140.3191  140.6946  165.6328 C.ar    1  UNL1        0.0153
      9 C         139.2086  140.0397  164.8658 C.ar    1  UNL1        0.0506
     10 C         138.1514  139.2629  165.5930 C.ar    1  UNL1        0.0178
     11 C         138.2046  139.1408  167.0871 C.ar    1  UNL1        0.0379
     12 C         139.3150  139.7956  167.8540 C.ar    1  UNL1        0.1364
     13 O         139.3682  139.6735  169.3482 O.3     1  UNL1       -0.4756
     14 C         140.4787  140.3283  170.1151 C.3     1  UNL1        0.2074
     15 C         141.5359  141.1052  169.3879 C.3     1  UNL1        0.0666
     16 C         142.7874  141.9317  169.4109 C.3     1  UNL1        0.0061
     17 C         142.2077  141.4128  170.6933 C.3     1  UNL1        0.0061
     18 H         142.7231  142.4627  163.9644 H       1  UNL1        0.1466
     19 H         144.0474  143.2646  164.6791 H       1  UNL1        0.1466
     20 N         139.1554  140.1618  163.3718 N.am    1  UNL1       -0.2779
     21 C         138.3178  141.2315  162.7360 C.2     1  UNL1        0.2855
     22 O         137.5335  142.1792  163.5943 O.2     1  UNL1       -0.2664
     23 H         139.6702  139.5399  162.8085 H       1  UNL1        0.1553
     24 C         138.2646  141.3536  161.2420 C.ar    1  UNL1        0.2173
     25 N         137.9282  140.1565  160.4032 N.ar    1  UNL1       -0.2207
     26 C         137.8750  140.2786  158.9090 C.ar    1  UNL1        0.1089
     27 C         138.1583  141.5979  158.2538 C.ar    1  UNL1        0.0729
     28 BR        138.1051  141.7199  156.7598 Br      1  UNL1       -0.0458
     29 C         138.4948  142.7950  159.0927 C.ar    1  UNL1        0.1089
     30 N         138.5479  142.6729  160.5867 N.ar    1  UNL1       -0.2207
@<TRIPOS>BOND
     1     1     2    1
     2     2     3    2
     3     3     4    1
     4     4     5    1
     5     5     6    1
     6     4     7    1
     7     7     8   ar
     8     8     9   ar
     9     9    20    1
    10    20    21   am
    11    21    22    2
    12    21    24    1
    13    24    25   ar
    14    25    26   ar
    15    26    27   ar
    16    27    28    1
    17    27    29   ar
    18    29    30   ar
    19     9    10   ar
    20    10    11   ar
    21    11    12   ar
    22    12    13    1
    23    13    14    1
    24    14    15    1
    25    15    16    1
    26    16    17    1
    27     6     2    1
    28    12     7   ar
    29    17    15    1
    30    15     4    1
    31    30    24   ar
    32     1    18    1
    33     1    19    1
    34    20    23    1
@<TRIPOS>MOLECULE
*****
 30 34 0 0 0
SMALL
GASTEIGER

@<TRIPOS>ATOM
      1 N         140.2443  145.0741  164.2831 N.pl3   1  UNL1       -0.3133
      2 C         140.0169  143.7176  164.8818 C.2     1  UNL1        0.2770
      3 N         139.4598  142.5213  164.1688 N.2     1  UNL1       -0.2204
      4 C         139.4053  141.3837  165.1450 C.3     1  UNL1        0.1537
      5 C         139.9287  141.8771  166.4614 C.3     1  UNL1        0.2350
      6 O         140.3066  143.3194  166.2987 O.2     1  UNL1       -0.4478
      7 C         138.9086  141.0349  163.7733 C.ar    1  UNL1        0.0367
      8 C         138.9035  142.0734  162.6909 C.ar    1  UNL1        0.0153
      9 C         138.4067  141.7245  161.3192 C.ar    1  UNL1        0.0506
     10 C         137.9152  140.3372  161.0298 C.ar    1  UNL1        0.0178
     11 C         137.9203  139.2987  162.1123 C.ar    1  UNL1        0.0379
     12 C         138.4170  139.6476  163.4840 C.ar    1  UNL1        0.1364
     13 O         138.4222  138.6091  164.5664 O.3     1  UNL1       -0.4756
     14 C         138.9189  138.9579  165.9381 C.3     1  UNL1        0.2074
     15 C         139.4105  140.3453  166.2274 C.3     1  UNL1        0.0666
     16 C         139.9810  141.3476  167.1864 C.3     1  UNL1        0.0061
     17 C         139.7002  139.9471  167.6443 C.3     1  UNL1        0.0061
     18 H         140.0214  145.2388  163.3384 H       1  UNL1        0.1466
     19 H         140.6164  145.7996  164.8348 H       1  UNL1        0.1466
     20 N         138.4016  142.7630  160.2368 N.am    1  UNL1       -0.2779
     21 C         139.5539  142.8558  159.2810 C.2     1  UNL1        0.2855
     22 O         140.7113  141.9102  159.4075 O.2     1  UNL1       -0.2664
     23 H         137.6419  143.3837  160.1538 H       1  UNL1        0.1553
     24 C         139.5487  143.8943  158.1986 C.ar    1  UNL1        0.2173
     25 N         138.9065  143.5961  156.8763 N.ar    1  UNL1       -0.2207
     26 C         138.9014  144.6347  155.7939 C.ar    1  UNL1        0.1089
     27 C         139.5385  145.9713  156.0339 C.ar    1  UNL1        0.0729
     28 BR        139.5333  147.0097  154.9516 Br      1  UNL1       -0.0458
     29 C         140.1807  146.2694  157.3563 C.ar    1  UNL1        0.1089
     30 N         140.1858  145.2309  158.4387 N.ar    1  UNL1       -0.2207
@<TRIPOS>BOND
     1     1     2    1
     2     2     3    2
     3     3     4    1
     4     4     5    1
     5     5     6    1
     6     4     7    1
     7     7     8   ar
     8     8     9   ar
     9     9    20    1
    10    20    21   am
    11    21    22    2
    12    21    24    1
    13    24    25   ar
    14    25    26   ar
    15    26    27   ar
    16    27    28    1
    17    27    29   ar
    18    29    30   ar
    19     9    10   ar
    20    10    11   ar
    21    11    12   ar
    22    12    13    1
    23    13    14    1
    24    14    15    1
    25    15    16    1
    26    16    17    1
    27     6     2    1
    28    12     7   ar
    29    17    15    1
    30    15     4    1
    31    30    24   ar
    32     1    18    1
    33     1    19    1
    34    20    23    1
@<TRIPOS>MOLECULE
*****
 30 34 0 0 0
SMALL
GASTEIGER

@<TRIPOS>ATOM
      1 N         145.0269  143.1116  161.8609 N.pl3   1  UNL1       -0.3133
      2 C         144.2203  142.9391  163.1138 C.2     1  UNL1        0.2770
      3 N         142.8222  143.4342  163.3375 N.2     1  UNL1       -0.2204
      4 C         142.4081  143.0422  164.7250 C.3     1  UNL1        0.1537
      5 C         143.5504  142.3050  165.3587 C.3     1  UNL1        0.2350
      6 O         144.6704  142.2412  164.3630 O.2     1  UNL1       -0.4478
      7 C         141.3564  143.7935  163.9637 C.ar    1  UNL1        0.0367
      8 C         141.6286  144.2510  162.5613 C.ar    1  UNL1        0.0153
      9 C         140.5769  145.0023  161.8000 C.ar    1  UNL1        0.0506
     10 C         139.2530  145.2961  162.4411 C.ar    1  UNL1        0.0178
     11 C         138.9808  144.8386  163.8435 C.ar    1  UNL1        0.0379
     12 C         140.0325  144.0873  164.6048 C.ar    1  UNL1        0.1364
     13 O         139.7604  143.6298  166.0072 O.3     1  UNL1       -0.4756
     14 C         140.8121  142.8786  166.7684 C.3     1  UNL1        0.2074
     15 C         142.1359  142.5848  166.1273 C.3     1  UNL1        0.0666
     16 C         143.5075  141.9814  166.1967 C.3     1  UNL1        0.0061
     17 C         142.5860  141.8869  167.3765 C.3     1  UNL1        0.0061
     18 H         144.6423  143.5873  161.0895 H       1  UNL1        0.1466
     19 H         145.9408  142.7492  161.8100 H       1  UNL1        0.1466
     20 N         140.8491  145.4598  160.3977 N.am    1  UNL1       -0.2779
     21 C         140.1812  144.7748  159.2424 C.2     1  UNL1        0.2855
     22 O         139.2411  143.6324  159.4894 O.2     1  UNL1       -0.2664
     23 H         141.4661  146.2096  160.2355 H       1  UNL1        0.1553
     24 C         140.4534  145.2323  157.8400 C.ar    1  UNL1        0.2173
     25 N         139.6998  146.3982  157.2719 N.ar    1  UNL1       -0.2207
     26 C         139.9720  146.8557  155.8695 C.ar    1  UNL1        0.1089
     27 C         140.9978  146.1472  155.0353 C.ar    1  UNL1        0.0729
     28 BR        141.2700  146.6047  153.6330 Br      1  UNL1       -0.0458
     29 C         141.7514  144.9813  155.6034 C.ar    1  UNL1        0.1089
     30 N         141.4792  144.5239  157.0058 N.ar    1  UNL1       -0.2207
@<TRIPOS>BOND
     1     1     2    1
     2     2     3    2
     3     3     4    1
     4     4     5    1
     5     5     6    1
     6     4     7    1
     7     7     8   ar
     8     8     9   ar
     9     9    20    1
    10    20    21   am
    11    21    22    2
    12    21    24    1
    13    24    25   ar
    14    25    26   ar
    15    26    27   ar
    16    27    28    1
    17    27    29   ar
    18    29    30   ar
    19     9    10   ar
    20    10    11   ar
    21    11    12   ar
    22    12    13    1
    23    13    14    1
    24    14    15    1
    25    15    16    1
    26    16    17    1
    27     6     2    1
    28    12     7   ar
    29    17    15    1
    30    15     4    1
    31    30    24   ar
    32     1    18    1
    33     1    19    1
    34    20    23    1
@<TRIPOS>MOLECULE
*****
 30 34 0 0 0
SMALL
GASTEIGER

@<TRIPOS>ATOM
      1 N         138.1813  137.5203  162.4331 N.pl3   1  UNL1       -0.3133
      2 C         138.8856  138.2252  163.5544 C.2     1  UNL1        0.2770
      3 N         140.3529  138.5296  163.6208 N.2     1  UNL1       -0.2204
      4 C         140.6204  139.2420  164.9135 C.3     1  UNL1        0.1537
      5 C         139.3184  139.3778  165.6459 C.3     1  UNL1        0.2350
      6 O         138.2463  138.7494  164.8060 O.2     1  UNL1       -0.4478
      7 C         141.8416  139.0333  164.0678 C.ar    1  UNL1        0.0367
      8 C         141.7277  138.3341  162.7457 C.ar    1  UNL1        0.0153
      9 C         142.9489  138.1253  161.9000 C.ar    1  UNL1        0.0506
     10 C         144.2840  138.6158  162.3765 C.ar    1  UNL1        0.0178
     11 C         144.3978  139.3150  163.6988 C.ar    1  UNL1        0.0379
     12 C         143.1766  139.5237  164.5444 C.ar    1  UNL1        0.1364
     13 O         143.2905  140.2229  165.8666 O.3     1  UNL1       -0.4756
     14 C         142.0693  140.4316  166.7122 C.3     1  UNL1        0.2074
     15 C         140.7342  139.9412  166.2357 C.3     1  UNL1        0.0666
     16 C         139.2584  139.7786  166.4488 C.3     1  UNL1        0.0061
     17 C         140.0949  140.4654  167.4873 C.3     1  UNL1        0.0061
     18 H         138.6902  137.2118  161.6489 H       1  UNL1        0.1466
     19 H         137.2101  137.3662  162.4815 H       1  UNL1        0.1466
     20 N         142.8351  137.4262  160.5778 N.am    1  UNL1       -0.2779
     21 C         142.6780  138.2250  159.3180 C.2     1  UNL1        0.2855
     22 O         142.6349  139.7231  159.3804 O.2     1  UNL1       -0.2664
     23 H         142.8634  136.4429  160.5369 H       1  UNL1        0.1553
     24 C         142.5642  137.5259  157.9959 C.ar    1  UNL1        0.2173
     25 N         143.3118  136.2477  157.7565 N.ar    1  UNL1       -0.2207
     26 C         143.1979  135.5485  156.4343 C.ar    1  UNL1        0.1089
     27 C         142.3364  136.1275  155.3515 C.ar    1  UNL1        0.0729
     28 BR        142.2225  135.4284  154.0293 Br      1  UNL1       -0.0458
     29 C         141.5888  137.4057  155.5908 C.ar    1  UNL1        0.1089
     30 N         141.7026  138.1049  156.9130 N.ar    1  UNL1       -0.2207
@<TRIPOS>BOND
     1     1     2    1
     2     2     3    2
     3     3     4    1
     4     4     5    1
     5     5     6    1
     6     4     7    1
     7     7     8   ar
     8     8     9   ar
     9     9    20    1
    10    20    21   am
    11    21    22    2
    12    21    24    1
    13    24    25   ar
    14    25    26   ar
    15    26    27   ar
    16    27    28    1
    17    27    29   ar
    18    29    30   ar
    19     9    10   ar
    20    10    11   ar
    21    11    12   ar
    22    12    13    1
    23    13    14    1
    24    14    15    1
    25    15    16    1
    26    16    17    1
    27     6     2    1
    28    12     7   ar
    29    17    15    1
    30    15     4    1
    31    30    24   ar
    32     1    18    1
    33     1    19    1
    34    20    23    1
@<TRIPOS>MOLECULE
*****
 30 34 0 0 0
SMALL
GASTEIGER

@<TRIPOS>ATOM
      1 N         138.0104  140.3242  162.8695 N.pl3   1  UNL1       -0.3133
      2 C         138.7003  140.4011  164.1993 C.2     1  UNL1        0.2770
      3 N         139.9820  141.1252  164.4870 N.2     1  UNL1       -0.2204
      4 C         140.3033  140.9389  165.9404 C.3     1  UNL1        0.1537
      5 C         139.2202  140.0996  166.5507 C.3     1  UNL1        0.2350
      6 O         138.2295  139.7672  165.4747 O.2     1  UNL1       -0.4478
      7 C         141.3084  141.7656  165.1943 C.ar    1  UNL1        0.0367
      8 C         141.1188  142.0367  163.7313 C.ar    1  UNL1        0.0153
      9 C         142.1238  142.8634  162.9853 C.ar    1  UNL1        0.0506
     10 C         143.3185  143.4189  163.7024 C.ar    1  UNL1        0.0178
     11 C         143.5081  143.1476  165.1654 C.ar    1  UNL1        0.0379
     12 C         142.5031  142.3210  165.9114 C.ar    1  UNL1        0.1364
     13 O         142.6927  142.0498  167.3745 O.3     1  UNL1       -0.4756
     14 C         141.6876  141.2232  168.1205 C.3     1  UNL1        0.2074
     15 C         140.4929  140.6677  167.4034 C.3     1  UNL1        0.0666
     16 C         139.2229  139.8698  167.4201 C.3     1  UNL1        0.0061
     17 C         140.0221  140.0339  168.6788 C.3     1  UNL1        0.0061
     18 H         138.3997  140.7761  162.0861 H       1  UNL1        0.1466
     19 H         137.1684  139.8220  162.7800 H       1  UNL1        0.1466
     20 N         141.9342  143.1346  161.5223 N.am    1  UNL1       -0.2779
     21 C         141.3104  144.4226  161.0729 C.2     1  UNL1        0.2855
     22 O         140.8762  145.4394  162.0865 O.2     1  UNL1       -0.2664
     23 H         142.2192  142.4672  160.8570 H       1  UNL1        0.1553
     24 C         141.1208  144.6937  159.6099 C.ar    1  UNL1        0.2173
     25 N         142.0679  145.6051  158.8871 N.ar    1  UNL1       -0.2207
     26 C         141.8782  145.8762  157.4240 C.ar    1  UNL1        0.1089
     27 C         140.7415  145.2361  156.6838 C.ar    1  UNL1        0.0729
     28 BR        140.5518  145.5072  155.2208 Br      1  UNL1       -0.0458
     29 C         139.7944  144.3247  157.4066 C.ar    1  UNL1        0.1089
     30 N         139.9840  144.0535  158.8696 N.ar    1  UNL1       -0.2207
@<TRIPOS>BOND
     1     1     2    1
     2     2     3    2
     3     3     4    1
     4     4     5    1
     5     5     6    1
     6     4     7    1
     7     7     8   ar
     8     8     9   ar
     9     9    20    1
    10    20    21   am
    11    21    22    2
    12    21    24    1
    13    24    25   ar
    14    25    26   ar
    15    26    27   ar
    16    27    28    1
    17    27    29   ar
    18    29    30   ar
    19     9    10   ar
    20    10    11   ar
    21    11    12   ar
    22    12    13    1
    23    13    14    1
    24    14    15    1
    25    15    16    1
    26    16    17    1
    27     6     2    1
    28    12     7   ar
    29    17    15    1
    30    15     4    1
    31    30    24   ar
    32     1    18    1
    33     1    19    1
    34    20    23    1
@<TRIPOS>MOLECULE
*****
 30 34 0 0 0
SMALL
GASTEIGER

@<TRIPOS>ATOM
      1 N         138.1607  142.6859  159.9115 N.pl3   1  UNL1       -0.3133
      2 C         138.4685  142.9670  161.3524 C.2     1  UNL1        0.2770
      3 N         139.2391  142.0745  162.2796 N.2     1  UNL1       -0.2204
      4 C         139.3066  142.7459  163.6194 C.3     1  UNL1        0.1537
      5 C         138.5778  144.0532  163.5200 C.3     1  UNL1        0.2350
      6 O         138.0599  144.1898  162.1190 O.2     1  UNL1       -0.4478
      7 C         139.9993  141.4163  163.5675 C.ar    1  UNL1        0.0367
      8 C         140.0144  140.6278  162.2916 C.ar    1  UNL1        0.0153
      9 C         140.7071  139.2983  162.2398 C.ar    1  UNL1        0.0506
     10 C         141.3845  138.7573  163.4639 C.ar    1  UNL1        0.0178
     11 C         141.3693  139.5459  164.7398 C.ar    1  UNL1        0.0379
     12 C         140.6767  140.8753  164.7916 C.ar    1  UNL1        0.1364
     13 O         140.6615  141.6639  166.0676 O.3     1  UNL1       -0.4756
     14 C         139.9689  142.9934  166.1194 C.3     1  UNL1        0.2074
     15 C         139.2914  143.5344  164.8953 C.3     1  UNL1        0.0666
     16 C         138.5005  144.6143  164.2185 C.3     1  UNL1        0.0061
     17 C         138.8828  144.7572  165.6619 C.3     1  UNL1        0.0061
     18 H         138.4739  141.8505  159.4951 H       1  UNL1        0.1466
     19 H         137.6454  143.3367  159.3822 H       1  UNL1        0.1466
     20 N         140.7223  138.5098  160.9639 N.am    1  UNL1       -0.2779
     21 C         141.7143  138.8417  159.8888 C.2     1  UNL1        0.2855
     22 O         142.6911  139.9622  160.0897 O.2     1  UNL1       -0.2664
     23 H         140.0811  137.7744  160.8320 H       1  UNL1        0.1553
     24 C         141.7294  138.0532  158.6129 C.ar    1  UNL1        0.2173
     25 N         140.5135  138.0234  157.7351 N.ar    1  UNL1       -0.2207
     26 C         140.5287  137.2349  156.4591 C.ar    1  UNL1        0.1089
     27 C         141.7599  136.4762  156.0610 C.ar    1  UNL1        0.0729
     28 BR        141.7750  135.6877  154.7851 Br      1  UNL1       -0.0458
     29 C         142.9759  136.5060  156.9388 C.ar    1  UNL1        0.1089
     30 N         142.9607  137.2945  158.2147 N.ar    1  UNL1       -0.2207
@<TRIPOS>BOND
     1     1     2    1
     2     2     3    2
     3     3     4    1
     4     4     5    1
     5     5     6    1
     6     4     7    1
     7     7     8   ar
     8     8     9   ar
     9     9    20    1
    10    20    21   am
    11    21    22    2
    12    21    24    1
    13    24    25   ar
    14    25    26   ar
    15    26    27   ar
    16    27    28    1
    17    27    29   ar
    18    29    30   ar
    19     9    10   ar
    20    10    11   ar
    21    11    12   ar
    22    12    13    1
    23    13    14    1
    24    14    15    1
    25    15    16    1
    26    16    17    1
    27     6     2    1
    28    12     7   ar
    29    17    15    1
    30    15     4    1
    31    30    24   ar
    32     1    18    1
    33     1    19    1
    34    20    23    1
@<TRIPOS>MOLECULE
*****
 30 34 0 0 0
SMALL
GASTEIGER

@<TRIPOS>ATOM
      1 N         139.6506  145.5192  163.2025 N.pl3   1  UNL1       -0.3133
      2 C         140.1484  145.3466  161.7980 C.2     1  UNL1        0.2770
      3 N         141.3192  144.5102  161.3742 N.2     1  UNL1       -0.2204
      4 C         141.4572  144.6268  159.8851 C.3     1  UNL1        0.1537
      5 C         140.3717  145.5352  159.3887 C.3     1  UNL1        0.2350
      6 O         139.5628  145.9801  160.5709 O.2     1  UNL1       -0.4478
      7 C         142.4847  143.7413  160.5256 C.ar    1  UNL1        0.0367
      8 C         142.4714  143.5295  162.0105 C.ar    1  UNL1        0.0153
      9 C         143.4990  142.6441  162.6510 C.ar    1  UNL1        0.0506
     10 C         144.5398  141.9705  161.8066 C.ar    1  UNL1        0.0178
     11 C         144.5530  142.1823  160.3217 C.ar    1  UNL1        0.0379
     12 C         143.5255  143.0677  159.6812 C.ar    1  UNL1        0.1364
     13 O         143.5388  143.2796  158.1962 O.3     1  UNL1       -0.4756
     14 C         142.5112  144.1650  157.5558 C.3     1  UNL1        0.2074
     15 C         141.4705  144.8386  158.4002 C.3     1  UNL1        0.0666
     16 C         140.2764  145.7387  158.5179 C.3     1  UNL1        0.0061
     17 C         140.8849  145.4721  157.1731 C.3     1  UNL1        0.0061
     18 H         140.1042  145.0595  163.9455 H       1  UNL1        0.1466
     19 H         138.8702  146.0922  163.3812 H       1  UNL1        0.1466
     20 N         143.4857  142.4323  164.1359 N.am    1  UNL1       -0.2779
     21 C         142.8322  141.2120  164.7136 C.2     1  UNL1        0.2855
     22 O         142.1919  140.2035  163.8065 O.2     1  UNL1       -0.2664
     23 H         143.9059  143.0942  164.7313 H       1  UNL1        0.1553
     24 C         142.8189  141.0001  166.1985 C.ar    1  UNL1        0.2173
     25 N         142.5891  139.6276  166.7583 N.ar    1  UNL1       -0.2207
     26 C         142.5759  139.4158  168.2433 C.ar    1  UNL1        0.1089
     27 C         142.7924  140.5766  169.1684 C.ar    1  UNL1        0.0729
     28 BR        142.7791  140.3648  170.6532 Br      1  UNL1       -0.0458
     29 C         143.0221  141.9491  168.6086 C.ar    1  UNL1        0.1089
     30 N         143.0354  142.1609  167.1237 N.ar    1  UNL1       -0.2207
@<TRIPOS>BOND
     1     1     2    1
     2     2     3    2
     3     3     4    1
     4     4     5    1
     5     5     6    1
     6     4     7    1
     7     7     8   ar
     8     8     9   ar
     9     9    20    1
    10    20    21   am
    11    21    22    2
    12    21    24    1
    13    24    25   ar
    14    25    26   ar
    15    26    27   ar
    16    27    28    1
    17    27    29   ar
    18    29    30   ar
    19     9    10   ar
    20    10    11   ar
    21    11    12   ar
    22    12    13    1
    23    13    14    1
    24    14    15    1
    25    15    16    1
    26    16    17    1
    27     6     2    1
    28    12     7   ar
    29    17    15    1
    30    15     4    1
    31    30    24   ar
    32     1    18    1
    33     1    19    1
    34    20    23    1
