@<TRIPOS>MOLECULE
*****
 41 43 0 0 0
SMALL
GASTEIGER

@<TRIPOS>ATOM
      1 C         138.5759  139.2071  166.8606 C.2     1  UNL1        0.2312
      2 O         137.4685  138.4756  167.5596 O.2     1  UNL1       -0.2745
      3 N         139.5621  140.0111  167.6549 N.am    1  UNL1       -0.2454
      4 C         138.7235  140.3134  163.0521 C.3     1  UNL1        0.0927
      5 C         138.9393  138.9896  162.3806 C.3     1  UNL1        0.0777
      6 N         139.0340  137.7383  163.2023 N.3     1  UNL1       -0.2967
      7 C         138.9128  137.8108  164.6956 C.3     1  UNL1        0.0777
      8 C         138.6970  139.1346  165.3672 C.3     1  UNL1        0.0933
      9 C         138.6024  140.3858  164.5454 C.3     1  UNL1        0.0210
     10 H         139.9428  137.3215  163.0005 H       1  UNL1        0.1233
     11 N         139.8772  142.2832  161.8117 N.am    1  UNL1       -0.3035
     12 C         138.6289  141.5646  162.2303 C.2     1  UNL1        0.2234
     13 O         137.2859  142.0974  161.8272 O.2     1  UNL1       -0.2751
     14 H         140.7587  141.9335  162.0762 H       1  UNL1        0.1495
     15 C         139.7826  143.5345  160.9899 C.3     1  UNL1        0.1011
     16 C         139.7765  144.8751  161.6629 C.3     1  UNL1        0.0221
     17 C         140.1705  144.9918  163.1055 C.3     1  UNL1        0.0017
     18 C         139.1546  144.7501  164.1823 C.3     1  UNL1        0.0001
     19 C         141.5803  145.3503  163.4713 C.3     1  UNL1        0.0001
     20 C         139.6939  143.4452  159.4952 C.3     1  UNL1        0.1615
     21 O         138.4118  143.0185  158.8440 O.3     1  UNL1       -0.3520
     22 C         137.3695  141.3076  157.1899 C.3     1  UNL1        0.0346
     23 C         138.2451  141.6049  158.3709 C.3     1  UNL1        0.1423
     24 C         140.6694  140.7426  166.9558 C.ar    1  UNL1        0.1404
     25 C         140.6188  142.2364  166.8295 C.ar    1  UNL1        0.0346
     26 C         141.7262  142.9679  166.1305 C.ar    1  UNL1        0.0032
     27 C         142.8842  142.2056  165.5578 C.ar    1  UNL1        0.0308
     28 C         142.9348  140.7118  165.6841 C.ar    1  UNL1        0.2217
     29 N         141.8274  139.9803  166.3832 N.ar    1  UNL1       -0.1966
     30 C         143.9916  142.9371  164.8588 C.3     1  UNL1        0.0269
     31 C         144.8938  143.8505  165.6346 C.3     1  UNL1        0.0048
     32 C         144.1967  142.7553  163.3841 C.3     1  UNL1        0.0048
     33 O         144.0928  139.9495  165.1115 O.3     1  UNL1       -0.4603
     34 C         143.8460  138.7696  164.2188 C.3     1  UNL1        0.2097
     35 C         143.3192  138.9772  162.8297 C.3     1  UNL1        0.0794
     36 C         143.8610  138.1627  161.6926 C.3     1  UNL1        0.1461
     37 O         144.2505  138.8333  160.4086 O.3     1  UNL1       -0.3510
     38 C         143.8154  140.2428  160.1366 C.3     1  UNL1        0.1741
     39 C         139.4409  140.0837  169.1482 C.3     1  UNL1        0.0812
     40 C         140.0670  139.9926  170.5083 C.3     1  UNL1        0.0219
     41 C         138.6050  140.3004  170.3748 C.3     1  UNL1        0.0219
@<TRIPOS>BOND
     1    22    23    1
     2    23    21    1
     3    21    20    1
     4    15    20    1
     5    15    16    1
     6    16    17    1
     7    17    18    1
     8    17    19    1
     9    15    11    1
    10    11    12   am
    11    12    13    2
    12     4    12    1
    13     4     5    1
    14     5     6    1
    15     6     7    1
    16     7     8    1
    17     8     1    1
    18     1     2    2
    19     1     3   am
    20     3    24    1
    21    24    25   ar
    22    25    26   ar
    23    26    27   ar
    24    27    30    1
    25    30    31    1
    26    30    32    1
    27    27    28   ar
    28    28    33    1
    29    33    34    1
    30    34    35    1
    31    35    36    1
    32    36    37    1
    33    37    38    1
    34    28    29   ar
    35     3    39    1
    36    39    40    1
    37    40    41    1
    38     8     9    1
    39     9     4    1
    40    29    24   ar
    41    41    39    1
    42    11    14    1
    43     6    10    1
@<TRIPOS>MOLECULE
*****
 41 43 0 0 0
SMALL
GASTEIGER

@<TRIPOS>ATOM
      1 C         143.4422  138.7542  166.4354 C.2     1  UNL1        0.2312
      2 O         144.1844  137.6211  167.0799 O.2     1  UNL1       -0.2745
      3 N         142.6794  139.7292  167.2825 N.am    1  UNL1       -0.2454
      4 C         142.2181  138.9082  162.6634 C.3     1  UNL1        0.0927
      5 C         143.5041  139.2284  161.9609 C.3     1  UNL1        0.0777
      6 N         144.7696  139.3905  162.7499 N.3     1  UNL1       -0.2967
      7 C         144.7489  139.2325  164.2414 C.3     1  UNL1        0.0777
      8 C         143.4629  138.9123  164.9439 C.3     1  UNL1        0.0933
      9 C         142.1975  138.7502  164.1549 C.3     1  UNL1        0.0210
     10 H         145.1178  140.3299  162.5581 H       1  UNL1        0.1233
     11 N         140.5088  139.8303  160.9378 N.am    1  UNL1       -0.3035
     12 C         140.9527  138.7461  161.8745 C.2     1  UNL1        0.2234
     13 O         140.1312  137.4998  162.0222 O.2     1  UNL1       -0.2751
     14 H         141.0480  140.6483  160.8408 H       1  UNL1        0.1495
     15 C         139.2434  139.6682  160.1488 C.3     1  UNL1        0.1011
     16 C         137.9207  139.9920  160.7779 C.3     1  UNL1        0.0221
     17 C         137.8541  140.9402  161.9382 C.3     1  UNL1        0.0017
     18 C         137.9132  142.4202  161.7017 C.3     1  UNL1        0.0001
     19 C         137.7284  140.4083  163.3352 C.3     1  UNL1        0.0001
     20 C         139.3006  139.1823  158.7309 C.3     1  UNL1        0.1615
     21 O         139.0946  140.1451  157.5992 O.3     1  UNL1       -0.3520
     22 C         138.9746  142.6982  158.0655 C.3     1  UNL1        0.0346
     23 C         139.7536  141.4922  157.6312 C.3     1  UNL1        0.1423
     24 C         141.9373  140.8623  166.6380 C.ar    1  UNL1        0.1404
     25 C         140.4374  140.8758  166.6433 C.ar    1  UNL1        0.0346
     26 C         139.6952  142.0089  165.9989 C.ar    1  UNL1        0.0032
     27 C         140.4530  143.1285  165.3492 C.ar    1  UNL1        0.0308
     28 C         141.9530  143.1150  165.3438 C.ar    1  UNL1        0.2217
     29 N         142.6951  141.9819  165.9882 N.ar    1  UNL1       -0.1966
     30 C         139.7108  144.2616  164.7047 C.3     1  UNL1        0.0269
     31 C         140.0664  144.6962  163.3137 C.3     1  UNL1        0.0048
     32 C         138.6132  144.9601  165.4512 C.3     1  UNL1        0.0048
     33 O         142.7107  144.2346  164.6940 O.3     1  UNL1       -0.4603
     34 C         144.0180  143.9589  164.0122 C.3     1  UNL1        0.2097
     35 C         144.1514  144.1691  162.5329 C.3     1  UNL1        0.0794
     36 C         143.2524  143.4303  161.5864 C.3     1  UNL1        0.1461
     37 O         142.7748  144.0975  160.3307 O.3     1  UNL1       -0.3510
     38 C         142.8854  143.3862  159.0147 C.3     1  UNL1        0.1741
     39 C         142.6588  139.5711  168.7740 C.3     1  UNL1        0.0812
     40 C         142.5126  138.6996  169.9860 C.3     1  UNL1        0.0219
     41 C         142.7692  140.1688  170.1453 C.3     1  UNL1        0.0219
@<TRIPOS>BOND
     1    22    23    1
     2    23    21    1
     3    21    20    1
     4    15    20    1
     5    15    16    1
     6    16    17    1
     7    17    18    1
     8    17    19    1
     9    15    11    1
    10    11    12   am
    11    12    13    2
    12     4    12    1
    13     4     5    1
    14     5     6    1
    15     6     7    1
    16     7     8    1
    17     8     1    1
    18     1     2    2
    19     1     3   am
    20     3    24    1
    21    24    25   ar
    22    25    26   ar
    23    26    27   ar
    24    27    30    1
    25    30    31    1
    26    30    32    1
    27    27    28   ar
    28    28    33    1
    29    33    34    1
    30    34    35    1
    31    35    36    1
    32    36    37    1
    33    37    38    1
    34    28    29   ar
    35     3    39    1
    36    39    40    1
    37    40    41    1
    38     8     9    1
    39     9     4    1
    40    29    24   ar
    41    41    39    1
    42    11    14    1
    43     6    10    1
@<TRIPOS>MOLECULE
*****
 41 43 0 0 0
SMALL
GASTEIGER

@<TRIPOS>ATOM
      1 C         139.0343  139.2979  166.9330 C.2     1  UNL1        0.2312
      2 O         137.9568  138.7720  167.8344 O.2     1  UNL1       -0.2745
      3 N         140.2379  139.9749  167.5186 N.am    1  UNL1       -0.2454
      4 C         138.6463  140.2107  163.0903 C.3     1  UNL1        0.0927
      5 C         138.6560  138.8442  162.4719 C.3     1  UNL1        0.0777
      6 N         138.7917  137.6289  163.3406 N.3     1  UNL1       -0.2967
      7 C         138.9178  137.7801  164.8275 C.3     1  UNL1        0.0777
      8 C         138.9082  139.1466  165.4459 C.3     1  UNL1        0.0933
      9 C         138.7724  140.3619  164.5773 C.3     1  UNL1        0.0210
     10 H         139.6241  137.1318  163.0235 H       1  UNL1        0.1233
     11 N         139.6287  141.8197  161.3025 N.am    1  UNL1       -0.3035
     12 C         138.5106  141.4261  162.2217 C.2     1  UNL1        0.2234
     13 O         137.2568  142.2479  162.2722 O.2     1  UNL1       -0.2751
     14 H         140.4516  141.2803  161.2693 H       1  UNL1        0.1495
     15 C         139.4929  143.0350  160.4338 C.3     1  UNL1        0.1011
     16 C         138.9738  142.9014  159.0328 C.3     1  UNL1        0.0221
     17 C         139.1991  141.6311  158.2675 C.3     1  UNL1        0.0017
     18 C         138.1959  140.5189  158.3483 C.3     1  UNL1        0.0001
     19 C         140.4276  141.4730  157.4214 C.3     1  UNL1        0.0001
     20 C         139.8763  144.3839  160.9661 C.3     1  UNL1        0.1615
     21 O         138.9129  145.1552  161.8188 O.3     1  UNL1       -0.3520
     22 C         140.1764  144.3860  163.9547 C.3     1  UNL1        0.0346
     23 C         139.0209  145.0959  163.3137 C.3     1  UNL1        0.1423
     24 C         141.3153  140.5008  166.6172 C.ar    1  UNL1        0.1404
     25 C         141.5667  141.9770  166.5308 C.ar    1  UNL1        0.0346
     26 C         142.6442  142.5029  165.6294 C.ar    1  UNL1        0.0032
     27 C         143.4703  141.5525  164.8144 C.ar    1  UNL1        0.0308
     28 C         143.2190  140.0762  164.9008 C.ar    1  UNL1        0.2217
     29 N         142.1415  139.5503  165.8021 N.ar    1  UNL1       -0.1966
     30 C         144.5478  142.0784  163.9130 C.3     1  UNL1        0.0269
     31 C         145.9236  141.4826  163.9620 C.3     1  UNL1        0.0048
     32 C         144.2496  143.1999  162.9627 C.3     1  UNL1        0.0048
     33 O         144.0450  139.1258  164.0857 O.3     1  UNL1       -0.4603
     34 C         143.5020  138.5706  162.8025 C.3     1  UNL1        0.2097
     35 C         143.8443  139.2262  161.4974 C.3     1  UNL1        0.0794
     36 C         142.9576  140.3014  160.9429 C.3     1  UNL1        0.1461
     37 O         141.6054  139.9508  160.3963 O.3     1  UNL1       -0.3510
     38 C         141.3861  138.6240  159.7317 C.3     1  UNL1        0.1741
     39 C         140.3640  140.1262  169.0056 C.3     1  UNL1        0.0812
     40 C         141.0898  139.8304  170.2845 C.3     1  UNL1        0.0219
     41 C         139.8566  140.6840  170.3023 C.3     1  UNL1        0.0219
@<TRIPOS>BOND
     1    22    23    1
     2    23    21    1
     3    21    20    1
     4    15    20    1
     5    15    16    1
     6    16    17    1
     7    17    18    1
     8    17    19    1
     9    15    11    1
    10    11    12   am
    11    12    13    2
    12     4    12    1
    13     4     5    1
    14     5     6    1
    15     6     7    1
    16     7     8    1
    17     8     1    1
    18     1     2    2
    19     1     3   am
    20     3    24    1
    21    24    25   ar
    22    25    26   ar
    23    26    27   ar
    24    27    30    1
    25    30    31    1
    26    30    32    1
    27    27    28   ar
    28    28    33    1
    29    33    34    1
    30    34    35    1
    31    35    36    1
    32    36    37    1
    33    37    38    1
    34    28    29   ar
    35     3    39    1
    36    39    40    1
    37    40    41    1
    38     8     9    1
    39     9     4    1
    40    29    24   ar
    41    41    39    1
    42    11    14    1
    43     6    10    1
@<TRIPOS>MOLECULE
*****
 41 43 0 0 0
SMALL
GASTEIGER

@<TRIPOS>ATOM
      1 C         141.0212  142.2916  158.3436 C.2     1  UNL1        0.2312
      2 O         141.3334  142.2127  156.8786 O.2     1  UNL1       -0.2745
      3 N         140.8685  143.6282  159.0070 N.am    1  UNL1       -0.2454
      4 C         141.6744  139.4575  161.0439 C.3     1  UNL1        0.0927
      5 C         140.5429  138.5183  160.7484 C.3     1  UNL1        0.0777
      6 N         139.5708  138.8367  159.6514 N.3     1  UNL1       -0.2967
      7 C         139.7302  140.0945  158.8498 C.3     1  UNL1        0.0777
      8 C         140.8617  141.0337  159.1452 C.3     1  UNL1        0.0933
      9 C         141.8339  140.7153  160.2423 C.3     1  UNL1        0.0210
     10 H         138.6459  138.8758  160.0797 H       1  UNL1        0.1233
     11 N         142.4932  139.7799  163.4884 N.am    1  UNL1       -0.3035
     12 C         142.6466  139.1390  162.1410 C.2     1  UNL1        0.2234
     13 O         143.7721  138.1796  161.8906 O.2     1  UNL1       -0.2751
     14 H         141.7545  140.4097  163.6528 H       1  UNL1        0.1495
     15 C         143.4653  139.4615  164.5855 C.3     1  UNL1        0.1011
     16 C         144.7739  140.1907  164.6631 C.3     1  UNL1        0.0221
     17 C         144.8790  141.5987  164.1566 C.3     1  UNL1        0.0017
     18 C         144.4607  142.7435  165.0309 C.3     1  UNL1        0.0001
     19 C         145.4024  141.8618  162.7757 C.3     1  UNL1        0.0001
     20 C         143.1290  138.4138  165.6048 C.3     1  UNL1        0.1615
     21 O         143.4591  138.6405  167.0504 O.3     1  UNL1       -0.3520
     22 C         142.6594  140.9727  167.8696 C.3     1  UNL1        0.0346
     23 C         142.5530  139.4769  167.9044 C.3     1  UNL1        0.1423
     24 C         140.5563  143.7070  160.4721 C.ar    1  UNL1        0.1404
     25 C         141.6153  144.1394  161.4424 C.ar    1  UNL1        0.0346
     26 C         141.3030  144.2182  162.9074 C.ar    1  UNL1        0.0032
     27 C         139.9318  143.8647  163.4021 C.ar    1  UNL1        0.0308
     28 C         138.8727  143.4324  162.4318 C.ar    1  UNL1        0.2217
     29 N         139.1850  143.3535  160.9668 N.ar    1  UNL1       -0.1966
     30 C         139.6196  143.9436  164.8671 C.3     1  UNL1        0.0269
     31 C         140.2862  143.0038  165.8277 C.3     1  UNL1        0.0048
     32 C         138.6408  144.9621  165.3716 C.3     1  UNL1        0.0048
     33 O         137.5015  143.0789  162.9265 O.3     1  UNL1       -0.4603
     34 C         137.1848  141.6642  163.3115 C.3     1  UNL1        0.2097
     35 C         138.0884  140.5484  162.8772 C.3     1  UNL1        0.0794
     36 C         138.8338  139.7451  163.9014 C.3     1  UNL1        0.1461
     37 O         138.6713  138.2547  163.9490 O.3     1  UNL1       -0.3510
     38 C         138.8756  137.5188  165.2400 C.3     1  UNL1        0.1741
     39 C         141.0279  144.8860  158.2054 C.3     1  UNL1        0.0812
     40 C         141.9085  145.8706  157.4948 C.3     1  UNL1        0.0219
     41 C         140.4236  146.0799  157.5277 C.3     1  UNL1        0.0219
@<TRIPOS>BOND
     1    22    23    1
     2    23    21    1
     3    21    20    1
     4    15    20    1
     5    15    16    1
     6    16    17    1
     7    17    18    1
     8    17    19    1
     9    15    11    1
    10    11    12   am
    11    12    13    2
    12     4    12    1
    13     4     5    1
    14     5     6    1
    15     6     7    1
    16     7     8    1
    17     8     1    1
    18     1     2    2
    19     1     3   am
    20     3    24    1
    21    24    25   ar
    22    25    26   ar
    23    26    27   ar
    24    27    30    1
    25    30    31    1
    26    30    32    1
    27    27    28   ar
    28    28    33    1
    29    33    34    1
    30    34    35    1
    31    35    36    1
    32    36    37    1
    33    37    38    1
    34    28    29   ar
    35     3    39    1
    36    39    40    1
    37    40    41    1
    38     8     9    1
    39     9     4    1
    40    29    24   ar
    41    41    39    1
    42    11    14    1
    43     6    10    1
@<TRIPOS>MOLECULE
*****
 41 43 0 0 0
SMALL
GASTEIGER

@<TRIPOS>ATOM
      1 C         140.3413  140.2151  168.6217 C.2     1  UNL1        0.2312
      2 O         140.0911  139.5488  169.9420 O.2     1  UNL1       -0.2745
      3 N         141.1693  141.4642  168.5569 N.am    1  UNL1       -0.2454
      4 C         140.0387  138.9170  164.8836 C.3     1  UNL1        0.0927
      5 C         138.6082  138.4669  164.8548 C.3     1  UNL1        0.0777
      6 N         137.7553  138.5995  166.0816 N.3     1  UNL1       -0.2967
      7 C         138.3330  139.1822  167.3372 C.3     1  UNL1        0.0777
      8 C         139.7636  139.6324  167.3660 C.3     1  UNL1        0.0933
      9 C         140.6164  139.4998  166.1392 C.3     1  UNL1        0.0210
     10 H         137.4281  137.6621  166.3154 H       1  UNL1        0.1233
     11 N         142.1511  139.5888  163.5284 N.am    1  UNL1       -0.3035
     12 C         140.8916  138.7844  163.6568 C.2     1  UNL1        0.2234
     13 O         140.4849  137.8475  162.5583 O.2     1  UNL1       -0.2751
     14 H         142.4180  140.2038  164.2494 H       1  UNL1        0.1495
     15 C         143.0039  139.4562  162.3016 C.3     1  UNL1        0.1011
     16 C         143.2378  140.6460  161.4186 C.3     1  UNL1        0.0221
     17 C         144.4169  141.5407  161.6623 C.3     1  UNL1        0.0017
     18 C         145.2678  141.3444  162.8818 C.3     1  UNL1        0.0001
     19 C         144.7449  142.6316  160.6864 C.3     1  UNL1        0.0001
     20 C         143.6229  138.1338  161.9578 C.3     1  UNL1        0.1615
     21 O         143.1646  137.3847  160.7418 O.3     1  UNL1       -0.3520
     22 C         142.6679  137.7466  158.2175 C.3     1  UNL1        0.0346
     23 C         142.4227  138.1029  159.6538 C.3     1  UNL1        0.1423
     24 C         141.4196  142.1306  167.2366 C.ar    1  UNL1        0.1404
     25 C         142.7608  142.0071  166.5765 C.ar    1  UNL1        0.0346
     26 C         143.0111  142.6734  165.2561 C.ar    1  UNL1        0.0032
     27 C         141.9201  143.4633  164.5959 C.ar    1  UNL1        0.0308
     28 C         140.5788  143.5868  165.2560 C.ar    1  UNL1        0.2217
     29 N         140.3285  142.9204  166.5764 N.ar    1  UNL1       -0.1966
     30 C         142.1704  144.1296  163.2755 C.3     1  UNL1        0.0269
     31 C         143.2442  145.1697  163.1519 C.3     1  UNL1        0.0048
     32 C         141.3469  143.7559  162.0788 C.3     1  UNL1        0.0048
     33 O         139.4878  144.3766  164.5958 O.3     1  UNL1       -0.4603
     34 C         138.1479  143.7474  164.3534 C.3     1  UNL1        0.2097
     35 C         138.0152  142.2536  164.3228 C.3     1  UNL1        0.0794
     36 C         137.3727  141.5816  163.1457 C.3     1  UNL1        0.1461
     37 O         138.2247  140.9372  162.0928 O.3     1  UNL1       -0.3510
     38 C         137.7355  139.7125  161.3780 C.3     1  UNL1        0.1741
     39 C         141.7471  142.0470  169.8126 C.3     1  UNL1        0.0812
     40 C         141.7782  142.1340  171.3097 C.3     1  UNL1        0.0219
     41 C         142.7166  142.9694  170.4903 C.3     1  UNL1        0.0219
@<TRIPOS>BOND
     1    22    23    1
     2    23    21    1
     3    21    20    1
     4    15    20    1
     5    15    16    1
     6    16    17    1
     7    17    18    1
     8    17    19    1
     9    15    11    1
    10    11    12   am
    11    12    13    2
    12     4    12    1
    13     4     5    1
    14     5     6    1
    15     6     7    1
    16     7     8    1
    17     8     1    1
    18     1     2    2
    19     1     3   am
    20     3    24    1
    21    24    25   ar
    22    25    26   ar
    23    26    27   ar
    24    27    30    1
    25    30    31    1
    26    30    32    1
    27    27    28   ar
    28    28    33    1
    29    33    34    1
    30    34    35    1
    31    35    36    1
    32    36    37    1
    33    37    38    1
    34    28    29   ar
    35     3    39    1
    36    39    40    1
    37    40    41    1
    38     8     9    1
    39     9     4    1
    40    29    24   ar
    41    41    39    1
    42    11    14    1
    43     6    10    1
@<TRIPOS>MOLECULE
*****
 41 43 0 0 0
SMALL
GASTEIGER

@<TRIPOS>ATOM
      1 C         140.0797  145.0441  158.7079 C.2     1  UNL1        0.2312
      2 O         140.2134  146.2111  157.7751 O.2     1  UNL1       -0.2745
      3 N         139.4968  143.7529  158.2150 N.am    1  UNL1       -0.2454
      4 C         142.0005  144.3426  162.1092 C.3     1  UNL1        0.0927
      5 C         141.4272  145.4168  162.9852 C.3     1  UNL1        0.0777
      6 N         140.4048  146.3668  162.4355 N.3     1  UNL1       -0.2967
      7 C         139.9556  146.2426  161.0098 C.3     1  UNL1        0.0777
      8 C         140.5289  145.1684  160.1338 C.3     1  UNL1        0.0933
      9 C         141.5513  144.2184  160.6835 C.3     1  UNL1        0.0210
     10 H         140.7879  147.3060  162.5428 H       1  UNL1        0.1233
     11 N         142.6391  141.9769  162.9728 N.am    1  UNL1       -0.3035
     12 C         143.0229  143.3926  162.6589 C.2     1  UNL1        0.2234
     13 O         144.4291  143.8582  162.8948 O.2     1  UNL1       -0.2751
     14 H         141.7161  141.6713  162.8180 H       1  UNL1        0.1495
     15 C         143.6615  141.0269  163.5225 C.3     1  UNL1        0.1011
     16 C         144.5770  140.2891  162.5911 C.3     1  UNL1        0.0221
     17 C         144.0063  139.4614  161.4779 C.3     1  UNL1        0.0017
     18 C         143.8597  140.0489  160.1056 C.3     1  UNL1        0.0001
     19 C         143.5821  138.0461  161.7372 C.3     1  UNL1        0.0001
     20 C         143.7684  140.8148  165.0035 C.3     1  UNL1        0.1615
     21 O         143.8232  139.4228  165.5598 O.3     1  UNL1       -0.3520
     22 C         141.4101  139.5887  166.5079 C.3     1  UNL1        0.0346
     23 C         142.7708  138.9576  166.5219 C.3     1  UNL1        0.1423
     24 C         139.3631  142.5859  159.1479 C.ar    1  UNL1        0.1404
     25 C         140.2703  141.4005  159.0010 C.ar    1  UNL1        0.0346
     26 C         140.1366  140.2335  159.9338 C.ar    1  UNL1        0.0032
     27 C         139.0956  140.2519  161.0136 C.ar    1  UNL1        0.0308
     28 C         138.1882  141.4374  161.1605 C.ar    1  UNL1        0.2217
     29 N         138.3220  142.6044  160.2277 N.ar    1  UNL1       -0.1966
     30 C         138.9618  139.0849  161.9464 C.3     1  UNL1        0.0269
     31 C         139.9567  138.8908  163.0522 C.3     1  UNL1        0.0048
     32 C         137.8333  138.1120  161.7735 C.3     1  UNL1        0.0048
     33 O         137.1472  141.4558  162.2403 O.3     1  UNL1       -0.4603
     34 C         137.4115  142.1844  163.5245 C.3     1  UNL1        0.2097
     35 C         138.3141  143.3825  163.5350 C.3     1  UNL1        0.0794
     36 C         138.3119  144.3128  164.7116 C.3     1  UNL1        0.1461
     37 O         139.4358  144.2696  165.7040 O.3     1  UNL1       -0.3510
     38 C         140.3688  143.0953  165.7298 C.3     1  UNL1        0.1741
     39 C         139.0476  143.6287  156.7892 C.3     1  UNL1        0.0812
     40 C         139.2344  143.0617  155.4131 C.3     1  UNL1        0.0219
     41 C         138.0829  143.9804  155.6958 C.3     1  UNL1        0.0219
@<TRIPOS>BOND
     1    22    23    1
     2    23    21    1
     3    21    20    1
     4    15    20    1
     5    15    16    1
     6    16    17    1
     7    17    18    1
     8    17    19    1
     9    15    11    1
    10    11    12   am
    11    12    13    2
    12     4    12    1
    13     4     5    1
    14     5     6    1
    15     6     7    1
    16     7     8    1
    17     8     1    1
    18     1     2    2
    19     1     3   am
    20     3    24    1
    21    24    25   ar
    22    25    26   ar
    23    26    27   ar
    24    27    30    1
    25    30    31    1
    26    30    32    1
    27    27    28   ar
    28    28    33    1
    29    33    34    1
    30    34    35    1
    31    35    36    1
    32    36    37    1
    33    37    38    1
    34    28    29   ar
    35     3    39    1
    36    39    40    1
    37    40    41    1
    38     8     9    1
    39     9     4    1
    40    29    24   ar
    41    41    39    1
    42    11    14    1
    43     6    10    1
@<TRIPOS>MOLECULE
*****
 41 43 0 0 0
SMALL
GASTEIGER

@<TRIPOS>ATOM
      1 C         139.7114  144.8128  161.3315 C.2     1  UNL1        0.2312
      2 O         139.2452  146.2383  161.3039 O.2     1  UNL1       -0.2745
      3 N         140.4975  144.2584  160.1806 N.am    1  UNL1       -0.2454
      4 C         140.1791  142.5258  164.5410 C.3     1  UNL1        0.0927
      5 C         138.7518  142.1999  164.8673 C.3     1  UNL1        0.0777
      6 N         137.6444  142.7449  164.0149 N.3     1  UNL1       -0.2967
      7 C         137.9642  143.6159  162.8364 C.3     1  UNL1        0.0777
      8 C         139.3915  143.9418  162.5101 C.3     1  UNL1        0.0933
      9 C         140.4990  143.3968  163.3625 C.3     1  UNL1        0.0210
     10 H         137.0412  143.2914  164.6298 H       1  UNL1        0.1233
     11 N         141.0913  140.6989  166.1473 N.am    1  UNL1       -0.3035
     12 C         141.2866  141.9808  165.3933 C.2     1  UNL1        0.2234
     13 O         142.5894  142.7177  165.4917 O.2     1  UNL1       -0.2751
     14 H         140.2362  140.2152  166.0827 H       1  UNL1        0.1495
     15 C         142.1988  140.1538  166.9996 C.3     1  UNL1        0.1011
     16 C         142.2098  140.4205  168.4758 C.3     1  UNL1        0.0221
     17 C         142.3611  141.8239  168.9833 C.3     1  UNL1        0.0017
     18 C         143.6922  142.3010  169.4836 C.3     1  UNL1        0.0001
     19 C         141.1812  142.7501  168.9904 C.3     1  UNL1        0.0001
     20 C         143.2952  139.3422  166.3759 C.3     1  UNL1        0.1615
     21 O         143.4483  139.3094  164.8841 O.3     1  UNL1       -0.3520
     22 C         145.1573  140.7847  163.5986 C.3     1  UNL1        0.0346
     23 C         144.8027  139.4885  164.2650 C.3     1  UNL1        0.1423
     24 C         140.9637  142.8330  160.2082 C.ar    1  UNL1        0.1404
     25 C         142.4119  142.5219  160.4449 C.ar    1  UNL1        0.0346
     26 C         142.8781  141.0965  160.4725 C.ar    1  UNL1        0.0032
     27 C         141.8961  139.9821  160.2635 C.ar    1  UNL1        0.0308
     28 C         140.4479  140.2930  160.0269 C.ar    1  UNL1        0.2217
     29 N         139.9817  141.7185  159.9992 N.ar    1  UNL1       -0.1966
     30 C         142.3623  138.5566  160.2911 C.3     1  UNL1        0.0269
     31 C         142.5667  137.8597  161.6036 C.3     1  UNL1        0.0048
     32 C         142.6242  137.8281  159.0064 C.3     1  UNL1        0.0048
     33 O         139.4659  139.1786  159.8179 O.3     1  UNL1       -0.4603
     34 C         138.7626  138.5684  160.9938 C.3     1  UNL1        0.2097
     35 C         138.4994  139.3913  162.2201 C.3     1  UNL1        0.0794
     36 C         138.7139  138.7986  163.5813 C.3     1  UNL1        0.1461
     37 O         140.1026  138.6714  164.1336 O.3     1  UNL1       -0.3510
     38 C         140.5799  137.3531  164.6669 C.3     1  UNL1        0.1741
     39 C         140.8174  145.1294  159.0020 C.3     1  UNL1        0.0812
     40 C         141.8263  145.8194  158.1325 C.3     1  UNL1        0.0219
     41 C         140.3627  145.9480  157.8302 C.3     1  UNL1        0.0219
@<TRIPOS>BOND
     1    22    23    1
     2    23    21    1
     3    21    20    1
     4    15    20    1
     5    15    16    1
     6    16    17    1
     7    17    18    1
     8    17    19    1
     9    15    11    1
    10    11    12   am
    11    12    13    2
    12     4    12    1
    13     4     5    1
    14     5     6    1
    15     6     7    1
    16     7     8    1
    17     8     1    1
    18     1     2    2
    19     1     3   am
    20     3    24    1
    21    24    25   ar
    22    25    26   ar
    23    26    27   ar
    24    27    30    1
    25    30    31    1
    26    30    32    1
    27    27    28   ar
    28    28    33    1
    29    33    34    1
    30    34    35    1
    31    35    36    1
    32    36    37    1
    33    37    38    1
    34    28    29   ar
    35     3    39    1
    36    39    40    1
    37    40    41    1
    38     8     9    1
    39     9     4    1
    40    29    24   ar
    41    41    39    1
    42    11    14    1
    43     6    10    1
@<TRIPOS>MOLECULE
*****
 41 43 0 0 0
SMALL
GASTEIGER

@<TRIPOS>ATOM
      1 C         143.2068  142.9414  159.3580 C.2     1  UNL1        0.2312
      2 O         144.0675  142.9760  158.1300 O.2     1  UNL1       -0.2745
      3 N         142.0753  143.9145  159.5085 N.am    1  UNL1       -0.2454
      4 C         142.7031  139.9111  161.8707 C.3     1  UNL1        0.0927
      5 C         144.0191  139.9179  162.5904 C.3     1  UNL1        0.0777
      6 N         145.0643  140.9325  162.2327 N.3     1  UNL1       -0.2967
      7 C         144.7936  141.9403  161.1552 C.3     1  UNL1        0.0777
      8 C         143.4776  141.9335  160.4355 C.3     1  UNL1        0.0933
      9 C         142.4323  140.9189  160.7933 C.3     1  UNL1        0.0210
     10 H         145.8942  140.4124  161.9476 H       1  UNL1        0.1233
     11 N         140.4980  139.2881  163.0952 N.am    1  UNL1       -0.3035
     12 C         141.6578  138.8964  162.2285 C.2     1  UNL1        0.2234
     13 O         141.7724  137.4901  161.7195 O.2     1  UNL1       -0.2751
     14 H         140.4228  140.2111  163.4294 H       1  UNL1        0.1495
     15 C         139.4527  138.2735  163.4530 C.3     1  UNL1        0.1011
     16 C         139.4759  137.6162  164.8011 C.3     1  UNL1        0.0221
     17 C         138.4794  138.0170  165.8482 C.3     1  UNL1        0.0017
     18 C         137.6699  136.9694  166.5533 C.3     1  UNL1        0.0001
     19 C         138.2925  139.4656  166.1902 C.3     1  UNL1        0.0001
     20 C         138.3843  137.9162  162.4627 C.3     1  UNL1        0.1615
     21 O         138.4862  138.3939  161.0444 O.3     1  UNL1       -0.3520
     22 C         137.8610  140.2377  159.3241 C.3     1  UNL1        0.0346
     23 C         138.2384  139.8372  160.7195 C.3     1  UNL1        0.1423
     24 C         141.2145  143.8798  160.7365 C.ar    1  UNL1        0.1404
     25 C         139.7266  143.7429  160.6058 C.ar    1  UNL1        0.0346
     26 C         138.8658  143.7082  161.8338 C.ar    1  UNL1        0.0032
     27 C         139.4930  143.8105  163.1924 C.ar    1  UNL1        0.0308
     28 C         140.9811  143.9475  163.3232 C.ar    1  UNL1        0.2217
     29 N         141.8418  143.9821  162.0952 N.ar    1  UNL1       -0.1966
     30 C         138.6323  143.7758  164.4204 C.3     1  UNL1        0.0269
     31 C         138.6411  144.9326  165.3754 C.3     1  UNL1        0.0048
     32 C         137.7628  142.5845  164.6934 C.3     1  UNL1        0.0048
     33 O         141.6083  144.0498  164.6819 O.3     1  UNL1       -0.4603
     34 C         142.1543  142.8229  165.3501 C.3     1  UNL1        0.2097
     35 C         141.3081  142.0615  166.3271 C.3     1  UNL1        0.0794
     36 C         141.7541  140.7152  166.8157 C.3     1  UNL1        0.1461
     37 O         141.9937  139.6039  165.8372 O.3     1  UNL1       -0.3510
     38 C         143.2136  138.7405  165.9668 C.3     1  UNL1        0.1741
     39 C         141.8045  144.9223  158.4310 C.3     1  UNL1        0.0812
     40 C         140.8327  145.6845  157.5797 C.3     1  UNL1        0.0219
     41 C         142.3072  145.9058  157.4161 C.3     1  UNL1        0.0219
@<TRIPOS>BOND
     1    22    23    1
     2    23    21    1
     3    21    20    1
     4    15    20    1
     5    15    16    1
     6    16    17    1
     7    17    18    1
     8    17    19    1
     9    15    11    1
    10    11    12   am
    11    12    13    2
    12     4    12    1
    13     4     5    1
    14     5     6    1
    15     6     7    1
    16     7     8    1
    17     8     1    1
    18     1     2    2
    19     1     3   am
    20     3    24    1
    21    24    25   ar
    22    25    26   ar
    23    26    27   ar
    24    27    30    1
    25    30    31    1
    26    30    32    1
    27    27    28   ar
    28    28    33    1
    29    33    34    1
    30    34    35    1
    31    35    36    1
    32    36    37    1
    33    37    38    1
    34    28    29   ar
    35     3    39    1
    36    39    40    1
    37    40    41    1
    38     8     9    1
    39     9     4    1
    40    29    24   ar
    41    41    39    1
    42    11    14    1
    43     6    10    1
@<TRIPOS>MOLECULE
*****
 41 43 0 0 0
SMALL
GASTEIGER

@<TRIPOS>ATOM
      1 C         143.5321  139.7785  158.4073 C.2     1  UNL1        0.2312
      2 O         143.7651  139.0239  157.1320 O.2     1  UNL1       -0.2745
      3 N         144.0905  141.1607  158.5736 N.am    1  UNL1       -0.2454
      4 C         140.8186  139.2772  161.2596 C.3     1  UNL1        0.0927
      5 C         141.1582  137.8954  161.7342 C.3     1  UNL1        0.0777
      6 N         142.2890  137.1413  161.0998 N.3     1  UNL1       -0.2967
      7 C         143.0803  137.7690  159.9909 C.3     1  UNL1        0.0777
      8 C         142.7408  139.1508  159.5163 C.3     1  UNL1        0.0933
      9 C         141.6099  139.9049  160.1507 C.3     1  UNL1        0.0210
     10 H         141.8947  136.2773  160.7277 H       1  UNL1        0.1233
     11 N         139.9757  141.1508  162.8499 N.am    1  UNL1       -0.3035
     12 C         139.6878  140.0314  161.8940 C.2     1  UNL1        0.2234
     13 O         138.2689  139.6661  161.5724 O.2     1  UNL1       -0.2751
     14 H         140.9069  141.3906  163.0610 H       1  UNL1        0.1495
     15 C         138.8449  141.9050  163.4843 C.3     1  UNL1        0.1011
     16 C         138.4209  143.2310  162.9256 C.3     1  UNL1        0.0221
     17 C         138.9810  144.4995  163.4976 C.3     1  UNL1        0.0017
     18 C         139.7010  145.4694  162.6084 C.3     1  UNL1        0.0001
     19 C         138.8209  144.7980  164.9589 C.3     1  UNL1        0.0001
     20 C         138.1380  141.3332  164.6773 C.3     1  UNL1        0.1615
     21 O         138.8028  140.2752  165.5071 O.3     1  UNL1       -0.3520
     22 C         139.4972  139.9841  167.9937 C.3     1  UNL1        0.0346
     23 C         139.6675  140.6663  166.6687 C.3     1  UNL1        0.1423
     24 C         143.8575  141.9153  159.8489 C.ar    1  UNL1        0.1404
     25 C         142.7683  142.9438  159.9235 C.ar    1  UNL1        0.0346
     26 C         142.5353  143.6984  161.1988 C.ar    1  UNL1        0.0032
     27 C         143.3915  143.4244  162.3995 C.ar    1  UNL1        0.0308
     28 C         144.4808  142.3958  162.3250 C.ar    1  UNL1        0.2217
     29 N         144.7138  141.6412  161.0497 N.ar    1  UNL1       -0.1966
     30 C         143.1586  144.1789  163.6748 C.3     1  UNL1        0.0269
     31 C         142.3476  143.5604  164.7748 C.3     1  UNL1        0.0048
     32 C         143.7365  145.5520  163.8502 C.3     1  UNL1        0.0048
     33 O         145.3371  142.1218  163.5257 O.3     1  UNL1       -0.4603
     34 C         145.2930  140.7761  164.1869 C.3     1  UNL1        0.2097
     35 C         143.9936  140.0338  164.2911 C.3     1  UNL1        0.0794
     36 C         143.2547  139.9949  165.5958 C.3     1  UNL1        0.1461
     37 O         142.6163  138.7187  166.0583 O.3     1  UNL1       -0.3510
     38 C         141.7003  137.9631  165.1417 C.3     1  UNL1        0.1741
     39 C         144.8818  141.7885  157.4646 C.3     1  UNL1        0.0812
     40 C         146.1856  142.2995  156.9272 C.3     1  UNL1        0.0219
     41 C         144.9486  142.3647  156.0813 C.3     1  UNL1        0.0219
@<TRIPOS>BOND
     1    22    23    1
     2    23    21    1
     3    21    20    1
     4    15    20    1
     5    15    16    1
     6    16    17    1
     7    17    18    1
     8    17    19    1
     9    15    11    1
    10    11    12   am
    11    12    13    2
    12     4    12    1
    13     4     5    1
    14     5     6    1
    15     6     7    1
    16     7     8    1
    17     8     1    1
    18     1     2    2
    19     1     3   am
    20     3    24    1
    21    24    25   ar
    22    25    26   ar
    23    26    27   ar
    24    27    30    1
    25    30    31    1
    26    30    32    1
    27    27    28   ar
    28    28    33    1
    29    33    34    1
    30    34    35    1
    31    35    36    1
    32    36    37    1
    33    37    38    1
    34    28    29   ar
    35     3    39    1
    36    39    40    1
    37    40    41    1
    38     8     9    1
    39     9     4    1
    40    29    24   ar
    41    41    39    1
    42    11    14    1
    43     6    10    1
