@<TRIPOS>MOLECULE
*****
 34 38 0 0 0
SMALL
GASTEIGER

@<TRIPOS>ATOM
      1 C         140.6903  139.2785  160.9823 C.3     1  UNL1        0.0747
      2 C         139.5941  138.8129  160.0704 C.3     1  UNL1        0.0369
      3 C         139.9150  138.3877  158.6682 C.3     1  UNL1        0.0741
      4 N         141.3321  138.4282  158.1779 N.3     1  UNL1       -0.2689
      5 C         142.4282  138.8938  159.0898 C.3     1  UNL1        0.0741
      6 C         142.1073  139.3190  160.4921 C.3     1  UNL1        0.0369
      7 O         140.6619  137.2526  163.1948 O.2     1  UNL1       -0.2668
      8 C         140.3552  138.6907  163.4907 C.2     1  UNL1        0.2806
      9 N         140.3694  139.7037  162.3845 N.am    1  UNL1       -0.2999
     10 H         140.1681  140.6476  162.5788 H       1  UNL1        0.1498
     11 C         140.0343  139.1160  164.8930 C.ar    1  UNL1        0.2014
     12 C         138.8770  138.4961  165.6184 C.ar    1  UNL1        0.0843
     13 C         138.5561  138.9213  167.0206 C.ar    1  UNL1        0.2018
     14 O         137.3987  138.3014  167.7461 O.2     1  UNL1       -0.2864
     15 C         139.3926  139.9664  167.6974 C.ar    1  UNL1        0.0737
     16 C         139.0717  140.3917  169.0997 C.ar    1  UNL1        0.0085
     17 C         139.9082  141.4368  169.7764 C.ar    1  UNL1        0.0299
     18 C         141.0655  142.0567  169.0509 C.ar    1  UNL1        0.1432
     19 F         141.9020  143.1018  169.7277 F       1  UNL1       -0.2041
     20 C         141.3864  141.6315  167.6487 C.ar    1  UNL1        0.0672
     21 C         140.5499  140.5863  166.9720 C.ar    1  UNL1        0.1508
     22 O         140.8708  140.1611  165.5698 O.2     1  UNL1       -0.4486
     23 C         141.6530  138.0030  156.7757 C.3     1  UNL1        0.0992
     24 C         141.8621  136.5513  156.4614 C.ar    1  UNL1       -0.0048
     25 C         141.0617  135.8962  155.3750 C.ar    1  UNL1       -0.0028
     26 C         141.2709  134.4445  155.0608 C.ar    1  UNL1        0.0007
     27 C         142.2804  133.6479  155.8329 C.ar    1  UNL1        0.0115
     28 C         142.4895  132.1961  155.5186 C.2     1  UNL1       -0.0152
     29 C         143.4991  131.3994  156.2908 C.3     1  UNL1        0.1132
     30 C         144.2995  132.0546  157.3772 C.2     1  UNL1        0.2500
     31 O         145.3090  131.2579  158.1494 O.2     1  UNL1       -0.2726
     32 N         144.0903  133.5063  157.6915 N.am    1  UNL1       -0.1789
     33 C         143.0808  134.3029  156.9193 C.ar    1  UNL1        0.0728
     34 C         142.8716  135.7546  157.2335 C.ar    1  UNL1        0.0137
@<TRIPOS>BOND
     1     7     8    2
     2     8     9   am
     3     9     1    1
     4     1     2    1
     5     2     3    1
     6     3     4    1
     7     4    23    1
     8    23    24    1
     9    24    25   ar
    10    25    26   ar
    11    26    27   ar
    12    27    28    2
    13    28    29    1
    14    29    30    1
    15    30    31    2
    16    30    32    1
    17    32    33    2
    18    33    34   ar
    19     4     5    1
    20     5     6    1
    21     8    11    1
    22    11    12   ar
    23    12    13   ar
    24    13    14    2
    25    13    15   ar
    26    15    16   ar
    27    16    17   ar
    28    17    18   ar
    29    18    19    1
    30    18    20   ar
    31    20    21   ar
    32    21    22   ar
    33     6     1    1
    34    22    11   ar
    35    34    24   ar
    36    21    15   ar
    37    33    27   ar
    38     9    10    1
@<TRIPOS>MOLECULE
*****
 34 38 0 0 0
SMALL
GASTEIGER

@<TRIPOS>ATOM
      1 C         137.7919  139.4721  161.3973 C.3     1  UNL1        0.0747
      2 C         138.3318  138.1126  161.7295 C.3     1  UNL1        0.0369
      3 C         138.7365  137.7897  163.1373 C.3     1  UNL1        0.0741
      4 N         138.6013  138.8264  164.2130 N.3     1  UNL1       -0.2689
      5 C         138.0615  140.1859  163.8809 C.3     1  UNL1        0.0741
      6 C         137.6568  140.5087  162.4730 C.3     1  UNL1        0.0369
      7 O         139.8179  140.5465  159.4631 O.2     1  UNL1       -0.2668
      8 C         138.4002  140.3321  159.0224 C.2     1  UNL1        0.2806
      9 N         137.3872  139.7949  159.9895 N.am    1  UNL1       -0.2999
     10 H         136.4568  139.6542  159.7003 H       1  UNL1        0.1498
     11 C         137.9954  140.6550  157.6146 C.ar    1  UNL1        0.2014
     12 C         139.0436  140.9193  156.5747 C.ar    1  UNL1        0.0843
     13 C         138.6389  141.2421  155.1669 C.ar    1  UNL1        0.2018
     14 O         139.6871  141.5065  154.1270 O.2     1  UNL1       -0.2864
     15 C         137.1859  141.3006  154.7990 C.ar    1  UNL1        0.0737
     16 C         136.7811  141.6235  153.3911 C.ar    1  UNL1        0.0085
     17 C         135.3281  141.6819  153.0232 C.ar    1  UNL1        0.0299
     18 C         134.2799  141.4176  154.0632 C.ar    1  UNL1        0.1432
     19 F         132.8269  141.4761  153.6952 F       1  UNL1       -0.2041
     20 C         134.6846  141.0948  155.4709 C.ar    1  UNL1        0.0672
     21 C         136.1376  141.0363  155.8389 C.ar    1  UNL1        0.1508
     22 O         136.5424  140.7135  157.2466 O.2     1  UNL1       -0.4486
     23 C         139.0060  138.5036  165.6208 C.3     1  UNL1        0.0992
     24 C         139.8307  139.4795  166.4067 C.ar    1  UNL1       -0.0048
     25 C         141.0222  140.1350  165.7740 C.ar    1  UNL1       -0.0028
     26 C         141.8468  141.1109  166.5599 C.ar    1  UNL1        0.0007
     27 C         141.4797  141.4314  167.9785 C.ar    1  UNL1        0.0115
     28 C         142.3044  142.4073  168.7644 C.2     1  UNL1       -0.0152
     29 C         141.9373  142.7278  170.1831 C.3     1  UNL1        0.1132
     30 C         140.7456  142.0722  170.8158 C.2     1  UNL1        0.2500
     31 O         140.3786  142.3927  172.2345 O.2     1  UNL1       -0.2726
     32 N         139.9211  141.0963  170.0299 N.am    1  UNL1       -0.1789
     33 C         140.2881  140.7759  168.6113 C.ar    1  UNL1        0.0728
     34 C         139.4636  139.8000  167.8254 C.ar    1  UNL1        0.0137
@<TRIPOS>BOND
     1     7     8    2
     2     8     9   am
     3     9     1    1
     4     1     2    1
     5     2     3    1
     6     3     4    1
     7     4    23    1
     8    23    24    1
     9    24    25   ar
    10    25    26   ar
    11    26    27   ar
    12    27    28    2
    13    28    29    1
    14    29    30    1
    15    30    31    2
    16    30    32    1
    17    32    33    2
    18    33    34   ar
    19     4     5    1
    20     5     6    1
    21     8    11    1
    22    11    12   ar
    23    12    13   ar
    24    13    14    2
    25    13    15   ar
    26    15    16   ar
    27    16    17   ar
    28    17    18   ar
    29    18    19    1
    30    18    20   ar
    31    20    21   ar
    32    21    22   ar
    33     6     1    1
    34    22    11   ar
    35    34    24   ar
    36    21    15   ar
    37    33    27   ar
    38     9    10    1
@<TRIPOS>MOLECULE
*****
 34 38 0 0 0
SMALL
GASTEIGER

@<TRIPOS>ATOM
      1 C         142.9398  138.2743  161.2590 C.3     1  UNL1        0.0747
      2 C         144.2290  138.9653  161.5917 C.3     1  UNL1        0.0369
      3 C         144.2638  140.0108  162.6667 C.3     1  UNL1        0.0741
      4 N         143.0095  140.3654  163.4090 N.3     1  UNL1       -0.2689
      5 C         141.7203  139.6745  163.0763 C.3     1  UNL1        0.0741
      6 C         141.6855  138.6289  162.0013 C.3     1  UNL1        0.0369
      7 O         142.2737  139.0456  158.4374 O.2     1  UNL1       -0.2668
      8 C         142.5719  137.6144  158.7732 C.2     1  UNL1        0.2806
      9 N         142.9050  137.2288  160.1840 N.am    1  UNL1       -0.2999
     10 H         143.1007  136.2895  160.4044 H       1  UNL1        0.1498
     11 C         142.5371  136.5688  157.6982 C.ar    1  UNL1        0.2014
     12 C         141.6203  136.7323  156.5224 C.ar    1  UNL1        0.0843
     13 C         141.5855  135.6868  155.4474 C.ar    1  UNL1        0.2018
     14 O         140.6687  135.8502  154.2715 O.2     1  UNL1       -0.2864
     15 C         142.4675  134.4777  155.5484 C.ar    1  UNL1        0.0737
     16 C         142.4327  133.4321  154.4734 C.ar    1  UNL1        0.0085
     17 C         143.3147  132.2230  154.5743 C.ar    1  UNL1        0.0299
     18 C         144.2315  132.0595  155.7502 C.ar    1  UNL1        0.1432
     19 F         145.1135  130.8504  155.8512 F       1  UNL1       -0.2041
     20 C         144.2663  133.1051  156.8252 C.ar    1  UNL1        0.0672
     21 C         143.3843  134.3142  156.7242 C.ar    1  UNL1        0.1508
     22 O         143.4191  135.3597  157.7991 O.2     1  UNL1       -0.4486
     23 C         143.0443  141.4109  164.4840 C.3     1  UNL1        0.0992
     24 C         142.6176  141.0658  165.8801 C.ar    1  UNL1       -0.0048
     25 C         143.0046  139.7457  166.4779 C.ar    1  UNL1       -0.0028
     26 C         142.5778  139.4007  167.8739 C.ar    1  UNL1        0.0007
     27 C         141.7640  140.3757  168.6720 C.ar    1  UNL1        0.0115
     28 C         141.3372  140.0306  170.0680 C.2     1  UNL1       -0.0152
     29 C         140.5234  141.0057  170.8661 C.3     1  UNL1        0.1132
     30 C         140.1364  142.3258  170.2682 C.2     1  UNL1        0.2500
     31 O         139.3225  143.3009  171.0663 O.2     1  UNL1       -0.2726
     32 N         140.5631  142.6709  168.8722 N.am    1  UNL1       -0.1789
     33 C         141.3770  141.6958  168.0741 C.ar    1  UNL1        0.0728
     34 C         141.8037  142.0409  166.6782 C.ar    1  UNL1        0.0137
@<TRIPOS>BOND
     1     7     8    2
     2     8     9   am
     3     9     1    1
     4     1     2    1
     5     2     3    1
     6     3     4    1
     7     4    23    1
     8    23    24    1
     9    24    25   ar
    10    25    26   ar
    11    26    27   ar
    12    27    28    2
    13    28    29    1
    14    29    30    1
    15    30    31    2
    16    30    32    1
    17    32    33    2
    18    33    34   ar
    19     4     5    1
    20     5     6    1
    21     8    11    1
    22    11    12   ar
    23    12    13   ar
    24    13    14    2
    25    13    15   ar
    26    15    16   ar
    27    16    17   ar
    28    17    18   ar
    29    18    19    1
    30    18    20   ar
    31    20    21   ar
    32    21    22   ar
    33     6     1    1
    34    22    11   ar
    35    34    24   ar
    36    21    15   ar
    37    33    27   ar
    38     9    10    1
@<TRIPOS>MOLECULE
*****
 34 38 0 0 0
SMALL
GASTEIGER

@<TRIPOS>ATOM
      1 C         142.7679  138.6241  160.6992 C.3     1  UNL1        0.0747
      2 C         141.4847  139.2815  161.1128 C.3     1  UNL1        0.0369
      3 C         141.5049  140.4131  162.0972 C.3     1  UNL1        0.0741
      4 N         142.8085  140.8873  162.6681 N.3     1  UNL1       -0.2689
      5 C         144.0918  140.2299  162.2546 C.3     1  UNL1        0.0741
      6 C         144.0715  139.0983  161.2701 C.3     1  UNL1        0.0369
      7 O         142.3873  139.1850  157.7768 O.2     1  UNL1       -0.2668
      8 C         142.5574  137.7730  158.2536 C.2     1  UNL1        0.2806
      9 N         142.7477  137.4926  159.7148 N.am    1  UNL1       -0.2999
     10 H         142.8593  136.5658  160.0278 H       1  UNL1        0.1498
     11 C         142.5371  136.6413  157.2692 C.ar    1  UNL1        0.2014
     12 C         141.6452  136.7105  156.0652 C.ar    1  UNL1        0.0843
     13 C         141.6249  135.5789  155.0808 C.ar    1  UNL1        0.2018
     14 O         140.7330  135.6480  153.8768 O.2     1  UNL1       -0.2864
     15 C         142.4966  134.3781  155.3005 C.ar    1  UNL1        0.0737
     16 C         142.4764  133.2465  154.3160 C.ar    1  UNL1        0.0085
     17 C         143.3481  132.0457  154.5357 C.ar    1  UNL1        0.0299
     18 C         144.2401  131.9765  155.7397 C.ar    1  UNL1        0.1432
     19 F         145.1118  130.7757  155.9594 F       1  UNL1       -0.2041
     20 C         144.2603  133.1081  156.7241 C.ar    1  UNL1        0.0672
     21 C         143.3886  134.3089  156.5045 C.ar    1  UNL1        0.1508
     22 O         143.4088  135.4405  157.4888 O.2     1  UNL1       -0.4486
     23 C         142.8288  142.0189  163.6525 C.3     1  UNL1        0.0992
     24 C         142.3388  141.8029  165.0537 C.ar    1  UNL1       -0.0048
     25 C         141.2865  142.7047  165.6276 C.ar    1  UNL1       -0.0028
     26 C         140.7965  142.4887  167.0288 C.ar    1  UNL1        0.0007
     27 C         141.3588  141.3708  167.8560 C.ar    1  UNL1        0.0115
     28 C         140.8688  141.1549  169.2572 C.2     1  UNL1       -0.0152
     29 C         141.4311  140.0371  170.0844 C.3     1  UNL1        0.1132
     30 C         142.4834  139.1352  169.5105 C.2     1  UNL1        0.2500
     31 O         143.0458  138.0174  170.3377 O.2     1  UNL1       -0.2726
     32 N         142.9734  139.3513  168.1093 N.am    1  UNL1       -0.1789
     33 C         142.4111  140.4691  167.2821 C.ar    1  UNL1        0.0728
     34 C         142.9011  140.6851  165.8810 C.ar    1  UNL1        0.0137
@<TRIPOS>BOND
     1     7     8    2
     2     8     9   am
     3     9     1    1
     4     1     2    1
     5     2     3    1
     6     3     4    1
     7     4    23    1
     8    23    24    1
     9    24    25   ar
    10    25    26   ar
    11    26    27   ar
    12    27    28    2
    13    28    29    1
    14    29    30    1
    15    30    31    2
    16    30    32    1
    17    32    33    2
    18    33    34   ar
    19     4     5    1
    20     5     6    1
    21     8    11    1
    22    11    12   ar
    23    12    13   ar
    24    13    14    2
    25    13    15   ar
    26    15    16   ar
    27    16    17   ar
    28    17    18   ar
    29    18    19    1
    30    18    20   ar
    31    20    21   ar
    32    21    22   ar
    33     6     1    1
    34    22    11   ar
    35    34    24   ar
    36    21    15   ar
    37    33    27   ar
    38     9    10    1
@<TRIPOS>MOLECULE
*****
 34 38 0 0 0
SMALL
GASTEIGER

@<TRIPOS>ATOM
      1 C         142.7299  138.7888  159.8610 C.3     1  UNL1        0.0747
      2 C         143.7560  139.8812  159.7986 C.3     1  UNL1        0.0369
      3 C         143.5282  141.1672  160.5363 C.3     1  UNL1        0.0741
      4 N         142.2742  141.3608  161.3365 N.3     1  UNL1       -0.2689
      5 C         141.2481  140.2684  161.3989 C.3     1  UNL1        0.0741
      6 C         141.4760  138.9824  160.6611 C.3     1  UNL1        0.0369
      7 O         141.9937  138.5725  156.9608 O.2     1  UNL1       -0.2668
      8 C         142.5896  137.3947  157.6731 C.2     1  UNL1        0.2806
      9 N         142.9577  137.5028  159.1232 N.am    1  UNL1       -0.2999
     10 H         143.3489  136.7297  159.5908 H       1  UNL1        0.1498
     11 C         142.8175  136.1086  156.9354 C.ar    1  UNL1        0.2014
     12 C         142.4308  135.9941  155.4906 C.ar    1  UNL1        0.0843
     13 C         142.6586  134.7081  154.7530 C.ar    1  UNL1        0.2018
     14 O         142.2719  134.5935  153.3082 O.2     1  UNL1       -0.2864
     15 C         143.2732  133.5366  155.4600 C.ar    1  UNL1        0.0737
     16 C         143.5011  132.2505  154.7223 C.ar    1  UNL1        0.0085
     17 C         144.1157  131.0791  155.4294 C.ar    1  UNL1        0.0299
     18 C         144.5024  131.1937  156.8742 C.ar    1  UNL1        0.1432
     19 F         145.1170  130.0222  157.5812 F       1  UNL1       -0.2041
     20 C         144.2745  132.4797  157.6118 C.ar    1  UNL1        0.0672
     21 C         143.6600  133.6511  156.9048 C.ar    1  UNL1        0.1508
     22 O         143.4321  134.9372  157.6424 O.2     1  UNL1       -0.4486
     23 C         142.0464  142.6468  162.0743 C.3     1  UNL1        0.0992
     24 C         141.6718  142.6221  163.5266 C.ar    1  UNL1       -0.0048
     25 C         140.2270  142.6459  163.9290 C.ar    1  UNL1       -0.0028
     26 C         139.8526  142.6212  165.3813 C.ar    1  UNL1        0.0007
     27 C         140.9228  142.5727  166.4311 C.ar    1  UNL1        0.0115
     28 C         140.5483  142.5480  167.8834 C.2     1  UNL1       -0.0152
     29 C         141.6186  142.4995  168.9333 C.3     1  UNL1        0.1132
     30 C         143.0634  142.4757  168.5308 C.2     1  UNL1        0.2500
     31 O         144.1337  142.4272  169.5806 O.2     1  UNL1       -0.2726
     32 N         143.4379  142.5004  167.0785 N.am    1  UNL1       -0.1789
     33 C         142.3676  142.5489  166.0287 C.ar    1  UNL1        0.0728
     34 C         142.7421  142.5736  164.5764 C.ar    1  UNL1        0.0137
@<TRIPOS>BOND
     1     7     8    2
     2     8     9   am
     3     9     1    1
     4     1     2    1
     5     2     3    1
     6     3     4    1
     7     4    23    1
     8    23    24    1
     9    24    25   ar
    10    25    26   ar
    11    26    27   ar
    12    27    28    2
    13    28    29    1
    14    29    30    1
    15    30    31    2
    16    30    32    1
    17    32    33    2
    18    33    34   ar
    19     4     5    1
    20     5     6    1
    21     8    11    1
    22    11    12   ar
    23    12    13   ar
    24    13    14    2
    25    13    15   ar
    26    15    16   ar
    27    16    17   ar
    28    17    18   ar
    29    18    19    1
    30    18    20   ar
    31    20    21   ar
    32    21    22   ar
    33     6     1    1
    34    22    11   ar
    35    34    24   ar
    36    21    15   ar
    37    33    27   ar
    38     9    10    1
@<TRIPOS>MOLECULE
*****
 34 38 0 0 0
SMALL
GASTEIGER

@<TRIPOS>ATOM
      1 C         143.7980  139.8149  159.8141 C.3     1  UNL1        0.0747
      2 C         143.6761  141.3069  159.7192 C.3     1  UNL1        0.0369
      3 C         143.8970  142.1563  160.9357 C.3     1  UNL1        0.0741
      4 N         144.2398  141.5136  162.2470 N.3     1  UNL1       -0.2689
      5 C         144.3617  140.0216  162.3418 C.3     1  UNL1        0.0741
      6 C         144.1408  139.1722  161.1253 C.3     1  UNL1        0.0369
      7 O         141.2087  138.3409  159.4637 O.2     1  UNL1       -0.2668
      8 C         142.2825  138.2285  158.4225 C.2     1  UNL1        0.2806
      9 N         143.5771  138.9655  158.5976 N.am    1  UNL1       -0.2999
     10 H         144.2819  138.8917  157.9142 H       1  UNL1        0.1498
     11 C         142.0616  137.3791  157.2060 C.ar    1  UNL1        0.2014
     12 C         141.1685  137.8657  156.1035 C.ar    1  UNL1        0.0843
     13 C         140.9477  137.0163  154.8871 C.ar    1  UNL1        0.2018
     14 O         140.0544  137.5029  153.7846 O.2     1  UNL1       -0.2864
     15 C         141.6200  135.6803  154.7731 C.ar    1  UNL1        0.0737
     16 C         141.3992  134.8309  153.5566 C.ar    1  UNL1        0.0085
     17 C         142.0716  133.4949  153.4426 C.ar    1  UNL1        0.0299
     18 C         142.9648  133.0083  154.5451 C.ar    1  UNL1        0.1432
     19 F         143.6372  131.6723  154.4311 F       1  UNL1       -0.2041
     20 C         143.1856  133.8577  155.7615 C.ar    1  UNL1        0.0672
     21 C         142.5132  135.1937  155.8755 C.ar    1  UNL1        0.1508
     22 O         142.7340  136.0431  157.0920 O.2     1  UNL1       -0.4486
     23 C         144.4607  142.3630  163.4634 C.3     1  UNL1        0.0992
     24 C         143.4182  142.4158  164.5407 C.ar    1  UNL1       -0.0048
     25 C         141.9633  142.3621  164.1798 C.ar    1  UNL1       -0.0028
     26 C         140.9209  142.4149  165.2570 C.ar    1  UNL1        0.0007
     27 C         141.3334  142.5214  166.6953 C.ar    1  UNL1        0.0115
     28 C         140.2909  142.5742  167.7726 C.2     1  UNL1       -0.0152
     29 C         140.7033  142.6806  169.2108 C.3     1  UNL1        0.1132
     30 C         142.1583  142.7343  169.5717 C.2     1  UNL1        0.2500
     31 O         142.5708  142.8407  171.0100 O.2     1  UNL1       -0.2726
     32 N         143.2007  142.6815  168.4945 N.am    1  UNL1       -0.1789
     33 C         142.7883  142.5750  167.0562 C.ar    1  UNL1        0.0728
     34 C         143.8307  142.5222  165.9790 C.ar    1  UNL1        0.0137
@<TRIPOS>BOND
     1     7     8    2
     2     8     9   am
     3     9     1    1
     4     1     2    1
     5     2     3    1
     6     3     4    1
     7     4    23    1
     8    23    24    1
     9    24    25   ar
    10    25    26   ar
    11    26    27   ar
    12    27    28    2
    13    28    29    1
    14    29    30    1
    15    30    31    2
    16    30    32    1
    17    32    33    2
    18    33    34   ar
    19     4     5    1
    20     5     6    1
    21     8    11    1
    22    11    12   ar
    23    12    13   ar
    24    13    14    2
    25    13    15   ar
    26    15    16   ar
    27    16    17   ar
    28    17    18   ar
    29    18    19    1
    30    18    20   ar
    31    20    21   ar
    32    21    22   ar
    33     6     1    1
    34    22    11   ar
    35    34    24   ar
    36    21    15   ar
    37    33    27   ar
    38     9    10    1
@<TRIPOS>MOLECULE
*****
 34 38 0 0 0
SMALL
GASTEIGER

@<TRIPOS>ATOM
      1 C         141.4706  139.3542  159.8119 C.3     1  UNL1        0.0747
      2 C         142.6261  139.4185  158.8577 C.3     1  UNL1        0.0369
      3 C         142.4480  138.9824  157.4336 C.3     1  UNL1        0.0741
      4 N         141.1142  138.4819  156.9637 N.3     1  UNL1       -0.2689
      5 C         139.9587  138.4176  157.9180 C.3     1  UNL1        0.0741
      6 C         140.1369  138.8538  159.3421 C.3     1  UNL1        0.0369
      7 O         141.7289  137.3045  161.9873 O.2     1  UNL1       -0.2668
      8 C         141.7779  138.7655  162.3237 C.2     1  UNL1        0.2806
      9 N         141.6487  139.7903  161.2360 N.am    1  UNL1       -0.2999
     10 H         141.6809  140.7492  161.4568 H       1  UNL1        0.1498
     11 C         141.9561  139.2017  163.7478 C.ar    1  UNL1        0.2014
     12 C         142.8833  138.4464  164.6531 C.ar    1  UNL1        0.0843
     13 C         143.0615  138.8826  166.0772 C.ar    1  UNL1        0.2018
     14 O         143.9888  138.1272  166.9826 O.2     1  UNL1       -0.2864
     15 C         142.3123  140.0741  166.5959 C.ar    1  UNL1        0.0737
     16 C         142.4905  140.5103  168.0200 C.ar    1  UNL1        0.0085
     17 C         141.7414  141.7018  168.5388 C.ar    1  UNL1        0.0299
     18 C         140.8140  142.4571  167.6334 C.ar    1  UNL1        0.1432
     19 F         140.0649  143.6486  168.1521 F       1  UNL1       -0.2041
     20 C         140.6359  142.0209  166.2093 C.ar    1  UNL1        0.0672
     21 C         141.3851  140.8294  165.6906 C.ar    1  UNL1        0.1508
     22 O         141.2069  140.3932  164.2666 O.2     1  UNL1       -0.4486
     23 C         140.9360  138.0458  155.5397 C.3     1  UNL1        0.0992
     24 C         141.3758  136.6763  155.1141 C.ar    1  UNL1       -0.0048
     25 C         141.4522  136.3325  153.6560 C.ar    1  UNL1       -0.0028
     26 C         141.8920  134.9630  153.2305 C.ar    1  UNL1        0.0007
     27 C         142.2553  133.9373  154.2630 C.ar    1  UNL1        0.0115
     28 C         142.6950  132.5678  153.8373 C.2     1  UNL1       -0.0152
     29 C         143.0583  131.5421  154.8698 C.3     1  UNL1        0.1132
     30 C         142.9819  131.8860  156.3279 C.2     1  UNL1        0.2500
     31 O         143.3452  130.8604  157.3604 O.2     1  UNL1       -0.2726
     32 N         142.5421  133.2555  156.7535 N.am    1  UNL1       -0.1789
     33 C         142.1788  134.2812  155.7210 C.ar    1  UNL1        0.0728
     34 C         141.7391  135.6506  156.1465 C.ar    1  UNL1        0.0137
@<TRIPOS>BOND
     1     7     8    2
     2     8     9   am
     3     9     1    1
     4     1     2    1
     5     2     3    1
     6     3     4    1
     7     4    23    1
     8    23    24    1
     9    24    25   ar
    10    25    26   ar
    11    26    27   ar
    12    27    28    2
    13    28    29    1
    14    29    30    1
    15    30    31    2
    16    30    32    1
    17    32    33    2
    18    33    34   ar
    19     4     5    1
    20     5     6    1
    21     8    11    1
    22    11    12   ar
    23    12    13   ar
    24    13    14    2
    25    13    15   ar
    26    15    16   ar
    27    16    17   ar
    28    17    18   ar
    29    18    19    1
    30    18    20   ar
    31    20    21   ar
    32    21    22   ar
    33     6     1    1
    34    22    11   ar
    35    34    24   ar
    36    21    15   ar
    37    33    27   ar
    38     9    10    1
@<TRIPOS>MOLECULE
*****
 34 38 0 0 0
SMALL
GASTEIGER

@<TRIPOS>ATOM
      1 C         141.0053  144.3073  158.9747 C.3     1  UNL1        0.0747
      2 C         139.8127  143.6295  158.3679 C.3     1  UNL1        0.0369
      3 C         139.2521  144.1212  157.0665 C.3     1  UNL1        0.0741
      4 N         139.8841  145.2909  156.3717 N.3     1  UNL1       -0.2689
      5 C         141.0767  145.9687  156.9786 C.3     1  UNL1        0.0741
      6 C         141.6373  145.4769  158.2801 C.3     1  UNL1        0.0369
      7 O         139.8360  145.2610  161.5676 O.2     1  UNL1       -0.2668
      8 C         140.9813  144.2923  161.5726 C.2     1  UNL1        0.2806
      9 N         141.5659  143.8155  160.2762 N.am    1  UNL1       -0.2999
     10 H         142.3176  143.1798  160.2795 H       1  UNL1        0.1498
     11 C         141.5420  143.8005  162.8741 C.ar    1  UNL1        0.2014
     12 C         143.0039  143.4854  162.9896 C.ar    1  UNL1        0.0843
     13 C         143.5645  142.9936  164.2911 C.ar    1  UNL1        0.2018
     14 O         145.0265  142.6785  164.4067 O.2     1  UNL1       -0.2864
     15 C         142.6632  142.8169  165.4770 C.ar    1  UNL1        0.0737
     16 C         143.2239  142.3251  166.7785 C.ar    1  UNL1        0.0085
     17 C         142.3225  142.1484  167.9644 C.ar    1  UNL1        0.0299
     18 C         140.8605  142.4635  167.8488 C.ar    1  UNL1        0.1432
     19 F         139.9592  142.2868  169.0347 F       1  UNL1       -0.2041
     20 C         140.2999  142.9553  166.5474 C.ar    1  UNL1        0.0672
     21 C         141.2012  143.1320  165.3615 C.ar    1  UNL1        0.1508
     22 O         140.6406  143.6238  164.0600 O.2     1  UNL1       -0.4486
     23 C         139.3235  145.7827  155.0703 C.3     1  UNL1        0.0992
     24 C         139.6399  147.1693  154.5935 C.ar    1  UNL1       -0.0048
     25 C         140.5556  147.3690  153.4224 C.ar    1  UNL1       -0.0028
     26 C         140.8720  148.7556  152.9457 C.ar    1  UNL1        0.0007
     27 C         140.2726  149.9424  153.6401 C.ar    1  UNL1        0.0115
     28 C         140.5890  151.3290  153.1633 C.2     1  UNL1       -0.0152
     29 C         139.9896  152.5159  153.8576 C.3     1  UNL1        0.1132
     30 C         139.0738  152.3161  155.0287 C.2     1  UNL1        0.2500
     31 O         138.4744  153.5030  155.7231 O.2     1  UNL1       -0.2726
     32 N         138.7575  150.9296  155.5055 N.am    1  UNL1       -0.1789
     33 C         139.3568  149.7427  154.8111 C.ar    1  UNL1        0.0728
     34 C         139.0405  148.3561  155.2879 C.ar    1  UNL1        0.0137
@<TRIPOS>BOND
     1     7     8    2
     2     8     9   am
     3     9     1    1
     4     1     2    1
     5     2     3    1
     6     3     4    1
     7     4    23    1
     8    23    24    1
     9    24    25   ar
    10    25    26   ar
    11    26    27   ar
    12    27    28    2
    13    28    29    1
    14    29    30    1
    15    30    31    2
    16    30    32    1
    17    32    33    2
    18    33    34   ar
    19     4     5    1
    20     5     6    1
    21     8    11    1
    22    11    12   ar
    23    12    13   ar
    24    13    14    2
    25    13    15   ar
    26    15    16   ar
    27    16    17   ar
    28    17    18   ar
    29    18    19    1
    30    18    20   ar
    31    20    21   ar
    32    21    22   ar
    33     6     1    1
    34    22    11   ar
    35    34    24   ar
    36    21    15   ar
    37    33    27   ar
    38     9    10    1
@<TRIPOS>MOLECULE
*****
 34 38 0 0 0
SMALL
GASTEIGER

@<TRIPOS>ATOM
      1 C         139.1212  142.7712  160.5762 C.3     1  UNL1        0.0747
      2 C         138.1182  143.1124  161.6381 C.3     1  UNL1        0.0369
      3 C         138.0849  142.3300  162.9175 C.3     1  UNL1        0.0741
      4 N         139.0546  141.2064  163.1350 N.3     1  UNL1       -0.2689
      5 C         140.0576  140.8652  162.0731 C.3     1  UNL1        0.0741
      6 C         140.0909  141.6477  160.7937 C.3     1  UNL1        0.0369
      7 O         141.1918  144.9050  160.1763 O.2     1  UNL1       -0.2668
      8 C         140.1898  144.6205  159.0970 C.2     1  UNL1        0.2806
      9 N         139.1545  143.5536  159.2969 N.am    1  UNL1       -0.2999
     10 H         138.4969  143.3669  158.5885 H       1  UNL1        0.1498
     11 C         140.2231  145.4029  157.8176 C.ar    1  UNL1        0.2014
     12 C         140.9569  144.8618  156.6265 C.ar    1  UNL1        0.0843
     13 C         140.9901  145.6442  155.3471 C.ar    1  UNL1        0.2018
     14 O         141.7240  145.1032  154.1559 O.2     1  UNL1       -0.2864
     15 C         140.2896  146.9676  155.2589 C.ar    1  UNL1        0.0737
     16 C         140.3229  147.7500  153.9795 C.ar    1  UNL1        0.0085
     17 C         139.6223  149.0735  153.8913 C.ar    1  UNL1        0.0299
     18 C         138.8885  149.6145  155.0825 C.ar    1  UNL1        0.1432
     19 F         138.1879  150.9379  154.9942 F       1  UNL1       -0.2041
     20 C         138.8552  148.8321  156.3618 C.ar    1  UNL1        0.0672
     21 C         139.5558  147.5087  156.4500 C.ar    1  UNL1        0.1508
     22 O         139.5225  146.7263  157.7293 O.2     1  UNL1       -0.4486
     23 C         139.0213  140.4240  164.4143 C.3     1  UNL1        0.0992
     24 C         139.7493  140.9322  165.6234 C.ar    1  UNL1       -0.0048
     25 C         139.7272  142.3955  165.9522 C.ar    1  UNL1       -0.0028
     26 C         140.4552  142.9036  167.1612 C.ar    1  UNL1        0.0007
     27 C         141.2053  141.9483  168.0415 C.ar    1  UNL1        0.0115
     28 C         141.9333  142.4565  169.2506 C.2     1  UNL1       -0.0152
     29 C         142.6833  141.5012  170.1309 C.3     1  UNL1        0.1132
     30 C         142.7054  140.0378  169.8021 C.2     1  UNL1        0.2500
     31 O         143.4554  139.0826  170.6824 O.2     1  UNL1       -0.2726
     32 N         141.9774  139.5297  168.5930 N.am    1  UNL1       -0.1789
     33 C         141.2273  140.4850  167.7127 C.ar    1  UNL1        0.0728
     34 C         140.4994  139.9769  166.5037 C.ar    1  UNL1        0.0137
@<TRIPOS>BOND
     1     7     8    2
     2     8     9   am
     3     9     1    1
     4     1     2    1
     5     2     3    1
     6     3     4    1
     7     4    23    1
     8    23    24    1
     9    24    25   ar
    10    25    26   ar
    11    26    27   ar
    12    27    28    2
    13    28    29    1
    14    29    30    1
    15    30    31    2
    16    30    32    1
    17    32    33    2
    18    33    34   ar
    19     4     5    1
    20     5     6    1
    21     8    11    1
    22    11    12   ar
    23    12    13   ar
    24    13    14    2
    25    13    15   ar
    26    15    16   ar
    27    16    17   ar
    28    17    18   ar
    29    18    19    1
    30    18    20   ar
    31    20    21   ar
    32    21    22   ar
    33     6     1    1
    34    22    11   ar
    35    34    24   ar
    36    21    15   ar
    37    33    27   ar
    38     9    10    1
