@<TRIPOS>MOLECULE
*****
 35 39 0 0 0
SMALL
GASTEIGER

@<TRIPOS>ATOM
      1 N         141.7720  139.6417  162.0853 N.pl3   1  UNL1       -0.2747
      2 C         141.3160  138.3949  161.3871 C.3     1  UNL1        0.1151
      3 C         141.7781  138.1062  159.9896 C.3     1  UNL1        0.1150
      4 N         142.6962  139.0642  159.2903 N.am    1  UNL1       -0.2730
      5 C         143.1583  138.7755  157.8928 C.2     1  UNL1        0.2699
      6 O         144.0765  139.7336  157.1934 O.2     1  UNL1       -0.2708
      7 C         143.1523  140.3110  159.9885 C.3     1  UNL1        0.1150
      8 C         142.6902  140.5998  161.3860 C.3     1  UNL1        0.1151
      9 C         142.1182  142.1110  168.1296 C.ar    1  UNL1        0.1739
     10 C         142.5803  141.8223  166.7320 C.ar    1  UNL1        0.0593
     11 C         141.7140  141.0207  165.8062 C.ar    1  UNL1        0.0901
     12 N         142.1762  140.7320  164.4087 N.ar    1  UNL1       -0.2134
     13 C         141.3099  139.9304  163.4829 C.ar    1  UNL1        0.2214
     14 N         139.9816  139.4176  163.9546 N.ar    1  UNL1       -0.1991
     15 C         139.5195  139.7063  165.3521 C.ar    1  UNL1        0.1298
     16 N         138.1912  139.1934  165.8238 N.pl3   1  UNL1       -0.3425
     17 C         140.3857  140.5079  166.2779 C.ar    1  UNL1        0.0522
     18 C         139.9236  140.7966  167.6754 C.ar    1  UNL1        0.0443
     19 C         140.7899  141.5982  168.6012 C.ar    1  UNL1        0.1726
     20 H         137.6227  138.6674  165.2162 H       1  UNL1        0.1437
     21 H         137.8879  139.3829  166.7411 H       1  UNL1        0.1437
     22 C         143.9429  142.2170  169.9759 C.3     1  UNL1        0.2526
     23 O         142.9844  142.9126  169.0554 O.3     1  UNL1       -0.4683
     24 O         140.3277  141.8869  169.9988 O.3     1  UNL1       -0.4684
     25 C         140.6336  140.9206  171.1046 C.3     1  UNL1        0.2526
     26 C         142.7023  137.5287  157.1946 C.3     1  UNL1        0.2845
     27 C         141.6330  137.6050  156.1454 C.3     1  UNL1        0.2583
     28 O         141.1770  136.3582  155.4472 O.3     1  UNL1       -0.4679
     29 C         141.7902  135.0351  155.7982 C.ar    1  UNL1        0.1724
     30 C         141.3341  133.7883  155.1000 C.ar    1  UNL1        0.0400
     31 C         141.9474  132.4651  155.4510 C.ar    1  UNL1        0.0033
     32 C         143.0166  132.3887  156.5002 C.ar    1  UNL1        0.0033
     33 C         143.4727  133.6355  157.1984 C.ar    1  UNL1        0.0401
     34 C         142.8595  134.9587  156.8474 C.ar    1  UNL1        0.1729
     35 O         143.3155  136.2055  157.5456 O.3     1  UNL1       -0.4630
@<TRIPOS>BOND
     1    22    23    1
     2    23     9    1
     3     9    10   ar
     4    10    11   ar
     5    11    12   ar
     6    12    13   ar
     7    13     1    1
     8     1     2    1
     9     2     3    1
    10     3     4    1
    11     4     5   am
    12     5     6    2
    13     5    26    1
    14    26    27    1
    15    27    28    1
    16    28    29    1
    17    29    30   ar
    18    30    31   ar
    19    31    32   ar
    20    32    33   ar
    21    33    34   ar
    22    34    35    1
    23     4     7    1
    24     7     8    1
    25    13    14   ar
    26    14    15   ar
    27    15    16    1
    28    15    17   ar
    29    17    18   ar
    30    18    19   ar
    31    19    24    1
    32    24    25    1
    33    19     9   ar
    34    17    11   ar
    35     8     1    1
    36    35    26    1
    37    34    29   ar
    38    16    20    1
    39    16    21    1
@<TRIPOS>MOLECULE
*****
 35 39 0 0 0
SMALL
GASTEIGER

@<TRIPOS>ATOM
      1 N         142.1053  139.6785  161.7187 N.pl3   1  UNL1       -0.2747
      2 C         141.7116  138.3364  161.1768 C.3     1  UNL1        0.1151
      3 C         142.0254  137.9807  159.7537 C.3     1  UNL1        0.1150
      4 N         142.7328  138.9671  158.8726 N.am    1  UNL1       -0.2730
      5 C         143.0466  138.6114  157.4496 C.2     1  UNL1        0.2699
      6 O         143.7540  139.5979  156.5684 O.2     1  UNL1       -0.2708
      7 C         143.1265  140.3093  159.4145 C.3     1  UNL1        0.1150
      8 C         142.8127  140.6650  160.8375 C.3     1  UNL1        0.1151
      9 C         138.8709  139.4186  167.3950 C.ar    1  UNL1        0.1739
     10 C         139.1847  139.0629  165.9720 C.ar    1  UNL1        0.0593
     11 C         140.3312  139.7265  165.2684 C.ar    1  UNL1        0.0901
     12 N         140.6450  139.3707  163.8453 N.ar    1  UNL1       -0.2134
     13 C         141.7915  140.0342  163.1417 C.ar    1  UNL1        0.2214
     14 N         142.6243  141.0536  163.8611 N.ar    1  UNL1       -0.1991
     15 C         142.3106  141.4093  165.2841 C.ar    1  UNL1        0.1298
     16 N         143.1434  142.4285  166.0035 N.pl3   1  UNL1       -0.3425
     17 C         141.1640  140.7457  165.9878 C.ar    1  UNL1        0.0522
     18 C         140.8503  141.1014  167.4108 C.ar    1  UNL1        0.0443
     19 C         139.7037  140.4379  168.1144 C.ar    1  UNL1        0.1726
     20 H         143.8959  142.8640  165.5416 H       1  UNL1        0.1437
     21 H         142.9375  142.6620  166.9375 H       1  UNL1        0.1437
     22 C         136.9792  137.6382  167.4300 C.3     1  UNL1        0.2526
     23 O         137.7243  138.7551  168.0987 O.3     1  UNL1       -0.4683
     24 O         139.3900  140.7936  169.5375 O.3     1  UNL1       -0.4684
     25 C         140.3369  140.4050  170.6340 C.3     1  UNL1        0.2526
     26 C         142.6529  137.2693  156.9077 C.3     1  UNL1        0.2845
     27 C         141.5614  137.1645  155.8842 C.3     1  UNL1        0.2583
     28 O         141.1678  135.8223  155.3423 O.3     1  UNL1       -0.4679
     29 C         141.8656  134.5850  155.8239 C.ar    1  UNL1        0.1724
     30 C         141.4719  133.2428  155.2821 C.ar    1  UNL1        0.0400
     31 C         142.1698  132.0054  155.7637 C.ar    1  UNL1        0.0033
     32 C         143.2612  132.1103  156.7873 C.ar    1  UNL1        0.0033
     33 C         143.6549  133.4524  157.3292 C.ar    1  UNL1        0.0401
     34 C         142.9571  134.6897  156.8475 C.ar    1  UNL1        0.1729
     35 O         143.3508  136.0319  157.3894 O.3     1  UNL1       -0.4630
@<TRIPOS>BOND
     1    22    23    1
     2    23     9    1
     3     9    10   ar
     4    10    11   ar
     5    11    12   ar
     6    12    13   ar
     7    13     1    1
     8     1     2    1
     9     2     3    1
    10     3     4    1
    11     4     5   am
    12     5     6    2
    13     5    26    1
    14    26    27    1
    15    27    28    1
    16    28    29    1
    17    29    30   ar
    18    30    31   ar
    19    31    32   ar
    20    32    33   ar
    21    33    34   ar
    22    34    35    1
    23     4     7    1
    24     7     8    1
    25    13    14   ar
    26    14    15   ar
    27    15    16    1
    28    15    17   ar
    29    17    18   ar
    30    18    19   ar
    31    19    24    1
    32    24    25    1
    33    19     9   ar
    34    17    11   ar
    35     8     1    1
    36    35    26    1
    37    34    29   ar
    38    16    20    1
    39    16    21    1
@<TRIPOS>MOLECULE
*****
 35 39 0 0 0
SMALL
GASTEIGER

@<TRIPOS>ATOM
      1 N         143.1342  139.1383  160.4104 N.pl3   1  UNL1       -0.2747
      2 C         143.0465  137.6431  160.3289 C.3     1  UNL1        0.1151
      3 C         142.9203  136.9709  158.9938 C.3     1  UNL1        0.1150
      4 N         142.8817  137.7939  157.7404 N.am    1  UNL1       -0.2730
      5 C         142.7555  137.1217  156.4055 C.2     1  UNL1        0.2699
      6 O         142.7169  137.9447  155.1519 O.2     1  UNL1       -0.2708
      7 C         142.9694  139.2891  157.8219 C.3     1  UNL1        0.1150
      8 C         143.0956  139.9613  159.1569 C.3     1  UNL1        0.1151
      9 C         141.1672  141.2320  166.2839 C.ar    1  UNL1        0.1739
     10 C         141.0410  140.5597  164.9489 C.ar    1  UNL1        0.0593
     11 C         142.2139  140.5213  164.0146 C.ar    1  UNL1        0.0901
     12 N         142.0876  139.8490  162.6796 N.ar    1  UNL1       -0.2134
     13 C         143.2604  139.8105  161.7453 C.ar    1  UNL1        0.2214
     14 N         144.5596  140.4444  162.1461 N.ar    1  UNL1       -0.1991
     15 C         144.6858  141.1166  163.4810 C.ar    1  UNL1        0.1298
     16 N         145.9850  141.7503  163.8817 N.pl3   1  UNL1       -0.3425
     17 C         143.5130  141.1550  164.4153 C.ar    1  UNL1        0.0522
     18 C         143.6392  141.8273  165.7503 C.ar    1  UNL1        0.0443
     19 C         142.4663  141.8657  166.6845 C.ar    1  UNL1        0.1726
     20 H         146.7548  141.7251  163.2685 H       1  UNL1        0.1437
     21 H         146.0678  142.1916  164.7579 H       1  UNL1        0.1437
     22 C         139.5415  140.0164  167.9054 C.3     1  UNL1        0.2526
     23 O         139.9943  141.2704  167.2181 O.3     1  UNL1       -0.4683
     24 O         142.5926  142.5380  168.0195 O.3     1  UNL1       -0.4684
     25 C         143.1228  141.7743  169.1967 C.3     1  UNL1        0.2526
     26 C         142.6678  135.6264  156.3240 C.3     1  UNL1        0.2845
     27 C         141.5357  134.9809  155.5813 C.3     1  UNL1        0.2583
     28 O         141.4480  133.4857  155.4998 O.3     1  UNL1       -0.4679
     29 C         142.4924  132.6360  156.1609 C.ar    1  UNL1        0.1724
     30 C         142.4047  131.1408  156.0794 C.ar    1  UNL1        0.0400
     31 C         143.4492  130.2911  156.7406 C.ar    1  UNL1        0.0033
     32 C         144.5813  130.9366  157.4833 C.ar    1  UNL1        0.0033
     33 C         144.6690  132.4318  157.5648 C.ar    1  UNL1        0.0401
     34 C         143.6246  133.2815  156.9036 C.ar    1  UNL1        0.1729
     35 O         143.7123  134.7767  156.9851 O.3     1  UNL1       -0.4630
@<TRIPOS>BOND
     1    22    23    1
     2    23     9    1
     3     9    10   ar
     4    10    11   ar
     5    11    12   ar
     6    12    13   ar
     7    13     1    1
     8     1     2    1
     9     2     3    1
    10     3     4    1
    11     4     5   am
    12     5     6    2
    13     5    26    1
    14    26    27    1
    15    27    28    1
    16    28    29    1
    17    29    30   ar
    18    30    31   ar
    19    31    32   ar
    20    32    33   ar
    21    33    34   ar
    22    34    35    1
    23     4     7    1
    24     7     8    1
    25    13    14   ar
    26    14    15   ar
    27    15    16    1
    28    15    17   ar
    29    17    18   ar
    30    18    19   ar
    31    19    24    1
    32    24    25    1
    33    19     9   ar
    34    17    11   ar
    35     8     1    1
    36    35    26    1
    37    34    29   ar
    38    16    20    1
    39    16    21    1
@<TRIPOS>MOLECULE
*****
 35 39 0 0 0
SMALL
GASTEIGER

@<TRIPOS>ATOM
      1 N         143.2966  137.8961  156.5194 N.pl3   1  UNL1       -0.2747
      2 C         142.8511  138.4375  157.8454 C.3     1  UNL1        0.1151
      3 C         143.3161  139.7901  158.2978 C.3     1  UNL1        0.1150
      4 N         144.2266  140.6010  157.4242 N.am    1  UNL1       -0.2730
      5 C         144.6916  141.9534  157.8765 C.2     1  UNL1        0.2699
      6 O         145.6022  142.7645  157.0029 O.2     1  UNL1       -0.2708
      7 C         144.6722  140.0595  156.0981 C.3     1  UNL1        0.1150
      8 C         144.2072  138.7071  155.6458 C.3     1  UNL1        0.1151
      9 C         142.7577  131.3814  156.6551 C.ar    1  UNL1        0.1739
     10 C         143.2227  132.7338  157.1074 C.ar    1  UNL1        0.0593
     11 C         142.7947  133.9625  156.3610 C.ar    1  UNL1        0.0901
     12 N         143.2597  135.3150  156.8135 N.ar    1  UNL1       -0.2134
     13 C         142.8317  136.5436  156.0670 C.ar    1  UNL1        0.2214
     14 N         141.9386  136.4198  154.8681 N.ar    1  UNL1       -0.1991
     15 C         141.4737  135.0674  154.4157 C.ar    1  UNL1        0.1298
     16 N         140.5807  134.9437  153.2169 N.pl3   1  UNL1       -0.3425
     17 C         141.9017  133.8387  155.1622 C.ar    1  UNL1        0.0522
     18 C         141.4367  132.4863  154.7098 C.ar    1  UNL1        0.0443
     19 C         141.8647  131.2576  155.4562 C.ar    1  UNL1        0.1726
     20 H         140.2998  135.7501  152.7270 H       1  UNL1        0.1437
     21 H         140.2755  134.0560  152.9200 H       1  UNL1        0.1437
     22 C         144.5075  130.1280  158.1101 C.3     1  UNL1        0.2526
     23 O         143.1857  130.1527  157.4015 O.3     1  UNL1       -0.4683
     24 O         141.3997  129.9052  155.0038 O.3     1  UNL1       -0.4684
     25 C         139.9437  129.6636  154.7358 C.3     1  UNL1        0.2526
     26 C         144.2461  142.4949  159.2025 C.3     1  UNL1        0.2845
     27 C         143.0865  143.4438  159.2739 C.3     1  UNL1        0.2583
     28 O         142.6410  143.9852  160.5999 O.3     1  UNL1       -0.4679
     29 C         143.3549  143.5779  161.8545 C.ar    1  UNL1        0.1724
     30 C         142.9094  144.1193  163.1805 C.ar    1  UNL1        0.0400
     31 C         143.6234  143.7119  164.4353 C.ar    1  UNL1        0.0033
     32 C         144.7829  142.7631  164.3639 C.ar    1  UNL1        0.0033
     33 C         145.2285  142.2216  163.0379 C.ar    1  UNL1        0.0401
     34 C         144.5145  142.6290  161.7833 C.ar    1  UNL1        0.1729
     35 O         144.9601  142.0875  160.4573 O.3     1  UNL1       -0.4630
@<TRIPOS>BOND
     1    22    23    1
     2    23     9    1
     3     9    10   ar
     4    10    11   ar
     5    11    12   ar
     6    12    13   ar
     7    13     1    1
     8     1     2    1
     9     2     3    1
    10     3     4    1
    11     4     5   am
    12     5     6    2
    13     5    26    1
    14    26    27    1
    15    27    28    1
    16    28    29    1
    17    29    30   ar
    18    30    31   ar
    19    31    32   ar
    20    32    33   ar
    21    33    34   ar
    22    34    35    1
    23     4     7    1
    24     7     8    1
    25    13    14   ar
    26    14    15   ar
    27    15    16    1
    28    15    17   ar
    29    17    18   ar
    30    18    19   ar
    31    19    24    1
    32    24    25    1
    33    19     9   ar
    34    17    11   ar
    35     8     1    1
    36    35    26    1
    37    34    29   ar
    38    16    20    1
    39    16    21    1
@<TRIPOS>MOLECULE
*****
 35 39 0 0 0
SMALL
GASTEIGER

@<TRIPOS>ATOM
      1 N         142.3005  138.6251  157.6138 N.pl3   1  UNL1       -0.2747
      2 C         141.1818  138.9757  158.5495 C.3     1  UNL1        0.1151
      3 C         141.1391  140.3300  159.1931 C.3     1  UNL1        0.1150
      4 N         142.2150  141.3335  158.9010 N.am    1  UNL1       -0.2730
      5 C         142.1722  142.6877  159.5447 C.2     1  UNL1        0.2699
      6 O         143.2481  143.6913  159.2526 O.2     1  UNL1       -0.2708
      7 C         143.3337  140.9828  157.9653 C.3     1  UNL1        0.1150
      8 C         143.3764  139.6287  157.3217 C.3     1  UNL1        0.1151
      9 C         144.1669  132.4070  156.8375 C.ar    1  UNL1        0.1739
     10 C         144.1241  133.7612  157.4811 C.ar    1  UNL1        0.0593
     11 C         143.2551  134.8389  156.9038 C.ar    1  UNL1        0.0901
     12 N         143.2123  136.1932  157.5475 N.ar    1  UNL1       -0.2134
     13 C         142.3433  137.2709  156.9701 C.ar    1  UNL1        0.2214
     14 N         141.5170  136.9944  155.7490 N.ar    1  UNL1       -0.1991
     15 C         141.5598  135.6402  155.1054 C.ar    1  UNL1        0.1298
     16 N         140.7336  135.3637  153.8844 N.pl3   1  UNL1       -0.3425
     17 C         142.4288  134.5625  155.6828 C.ar    1  UNL1        0.0522
     18 C         142.4716  133.2083  155.0391 C.ar    1  UNL1        0.0443
     19 C         143.3406  132.1306  155.6165 C.ar    1  UNL1        0.1726
     20 H         140.1633  136.0711  153.5055 H       1  UNL1        0.1437
     21 H         140.7617  134.4749  153.4619 H       1  UNL1        0.1437
     22 C         144.4215  130.2174  158.2124 C.3     1  UNL1        0.2526
     23 O         145.0359  131.3293  157.4148 O.3     1  UNL1       -0.4683
     24 O         143.3834  130.7763  154.9728 O.3     1  UNL1       -0.4684
     25 C         142.2591  129.8072  155.1892 C.3     1  UNL1        0.2526
     26 C         141.0535  143.0384  160.4804 C.3     1  UNL1        0.2845
     27 C         139.6790  143.3019  159.9407 C.3     1  UNL1        0.2583
     28 O         138.5603  143.6525  160.8764 O.3     1  UNL1       -0.4679
     29 C         138.8161  143.7397  162.3518 C.ar    1  UNL1        0.1724
     30 C         137.6974  144.0904  163.2875 C.ar    1  UNL1        0.0400
     31 C         137.9532  144.1776  164.7630 C.ar    1  UNL1        0.0033
     32 C         139.3277  143.9141  165.3027 C.ar    1  UNL1        0.0033
     33 C         140.4464  143.5634  164.3670 C.ar    1  UNL1        0.0401
     34 C         140.1906  143.4762  162.8916 C.ar    1  UNL1        0.1729
     35 O         141.3093  143.1255  161.9559 O.3     1  UNL1       -0.4630
@<TRIPOS>BOND
     1    22    23    1
     2    23     9    1
     3     9    10   ar
     4    10    11   ar
     5    11    12   ar
     6    12    13   ar
     7    13     1    1
     8     1     2    1
     9     2     3    1
    10     3     4    1
    11     4     5   am
    12     5     6    2
    13     5    26    1
    14    26    27    1
    15    27    28    1
    16    28    29    1
    17    29    30   ar
    18    30    31   ar
    19    31    32   ar
    20    32    33   ar
    21    33    34   ar
    22    34    35    1
    23     4     7    1
    24     7     8    1
    25    13    14   ar
    26    14    15   ar
    27    15    16    1
    28    15    17   ar
    29    17    18   ar
    30    18    19   ar
    31    19    24    1
    32    24    25    1
    33    19     9   ar
    34    17    11   ar
    35     8     1    1
    36    35    26    1
    37    34    29   ar
    38    16    20    1
    39    16    21    1
@<TRIPOS>MOLECULE
*****
 35 39 0 0 0
SMALL
GASTEIGER

@<TRIPOS>ATOM
      1 N         140.4974  143.9422  160.2291 N.pl3   1  UNL1       -0.2747
      2 C         140.7536  145.3006  159.6468 C.3     1  UNL1        0.1151
      3 C         140.3197  145.6095  158.2445 C.3     1  UNL1        0.1150
      4 N         139.6296  144.5600  157.4246 N.am    1  UNL1       -0.2730
      5 C         139.1957  144.8689  156.0224 C.2     1  UNL1        0.2699
      6 O         138.5056  143.8193  155.2024 O.2     1  UNL1       -0.2708
      7 C         139.3734  143.2016  158.0069 C.3     1  UNL1        0.1150
      8 C         139.8073  142.8927  159.4091 C.3     1  UNL1        0.1151
      9 C         140.3281  140.9518  166.0411 C.ar    1  UNL1        0.1739
     10 C         139.8942  141.2607  164.6388 C.ar    1  UNL1        0.0593
     11 C         140.6297  142.2926  163.8362 C.ar    1  UNL1        0.0901
     12 N         140.1958  142.6015  162.4339 N.ar    1  UNL1       -0.2134
     13 C         140.9313  143.6333  161.6313 C.ar    1  UNL1        0.2214
     14 N         142.1009  144.3563  162.2310 N.ar    1  UNL1       -0.1991
     15 C         142.5348  144.0474  163.6333 C.ar    1  UNL1        0.1298
     16 N         143.7042  144.7704  164.2329 N.pl3   1  UNL1       -0.3425
     17 C         141.7992  143.0156  164.4359 C.ar    1  UNL1        0.0522
     18 C         142.2331  142.7067  165.8381 C.ar    1  UNL1        0.0443
     19 C         141.4975  141.6748  166.6407 C.ar    1  UNL1        0.1726
     20 H         144.1870  145.4477  163.7061 H       1  UNL1        0.1437
     21 H         143.9890  144.5677  165.1532 H       1  UNL1        0.1437
     22 C         138.3664  139.2652  166.2799 C.3     1  UNL1        0.2526
     23 O         139.5925  139.9199  166.8437 O.3     1  UNL1       -0.4683
     24 O         141.9315  141.3659  168.0430 O.3     1  UNL1       -0.4684
     25 C         143.0817  142.1106  168.6533 C.3     1  UNL1        0.2526
     26 C         139.4519  146.2273  155.4400 C.3     1  UNL1        0.2845
     27 C         140.4033  146.3835  154.2910 C.3     1  UNL1        0.2583
     28 O         140.6595  147.7419  153.7087 O.3     1  UNL1       -0.4679
     29 C         139.9642  148.9441  154.2754 C.ar    1  UNL1        0.1724
     30 C         140.2204  150.3025  153.6931 C.ar    1  UNL1        0.0400
     31 C         139.5251  151.5048  154.2598 C.ar    1  UNL1        0.0033
     32 C         138.5736  151.3486  155.4088 C.ar    1  UNL1        0.0033
     33 C         138.3174  149.9902  155.9912 C.ar    1  UNL1        0.0401
     34 C         139.0127  148.7880  155.4245 C.ar    1  UNL1        0.1729
     35 O         138.7565  147.4296  156.0068 O.3     1  UNL1       -0.4630
@<TRIPOS>BOND
     1    22    23    1
     2    23     9    1
     3     9    10   ar
     4    10    11   ar
     5    11    12   ar
     6    12    13   ar
     7    13     1    1
     8     1     2    1
     9     2     3    1
    10     3     4    1
    11     4     5   am
    12     5     6    2
    13     5    26    1
    14    26    27    1
    15    27    28    1
    16    28    29    1
    17    29    30   ar
    18    30    31   ar
    19    31    32   ar
    20    32    33   ar
    21    33    34   ar
    22    34    35    1
    23     4     7    1
    24     7     8    1
    25    13    14   ar
    26    14    15   ar
    27    15    16    1
    28    15    17   ar
    29    17    18   ar
    30    18    19   ar
    31    19    24    1
    32    24    25    1
    33    19     9   ar
    34    17    11   ar
    35     8     1    1
    36    35    26    1
    37    34    29   ar
    38    16    20    1
    39    16    21    1
@<TRIPOS>MOLECULE
*****
 35 39 0 0 0
SMALL
GASTEIGER

@<TRIPOS>ATOM
      1 N         142.1902  139.3372  158.7394 N.pl3   1  UNL1       -0.2747
      2 C         142.2582  139.1512  160.2262 C.3     1  UNL1        0.1151
      3 C         142.4716  140.3358  161.1213 C.3     1  UNL1        0.1150
      4 N         142.6171  141.7064  160.5295 N.am    1  UNL1       -0.2730
      5 C         142.8305  142.8910  161.4246 C.2     1  UNL1        0.2699
      6 O         142.9760  144.2617  160.8328 O.2     1  UNL1       -0.2708
      7 C         142.5492  141.8924  159.0427 C.3     1  UNL1        0.1150
      8 C         142.3358  140.7079  158.1476 C.3     1  UNL1        0.1151
      9 C         143.5234  133.5239  156.0600 C.ar    1  UNL1        0.1739
     10 C         143.7368  134.7085  156.9551 C.ar    1  UNL1        0.0593
     11 C         142.7501  135.8383  156.9521 C.ar    1  UNL1        0.0901
     12 N         142.9636  137.0229  157.8473 N.ar    1  UNL1       -0.2134
     13 C         141.9768  138.1526  157.8443 C.ar    1  UNL1        0.2214
     14 N         140.7766  138.0977  156.9462 N.ar    1  UNL1       -0.1991
     15 C         140.5632  136.9132  156.0511 C.ar    1  UNL1        0.1298
     16 N         139.3630  136.8584  155.1530 N.pl3   1  UNL1       -0.3425
     17 C         141.5499  135.7834  156.0541 C.ar    1  UNL1        0.0522
     18 C         141.3365  134.5989  155.1590 C.ar    1  UNL1        0.0443
     19 C         142.3233  133.4691  155.1620 C.ar    1  UNL1        0.1726
     20 H         138.7154  137.5999  155.1511 H       1  UNL1        0.1437
     21 H         139.2229  136.0809  154.5655 H       1  UNL1        0.1437
     22 C         145.2379  132.0373  157.3252 C.3     1  UNL1        0.2526
     23 O         144.5102  132.3942  156.0630 O.3     1  UNL1       -0.4683
     24 O         142.1098  132.2845  154.2668 O.3     1  UNL1       -0.4684
     25 C         140.9582  131.3556  154.5139 C.3     1  UNL1        0.2526
     26 C         142.8984  142.7049  162.9115 C.3     1  UNL1        0.2845
     27 C         144.2076  142.3806  163.5677 C.3     1  UNL1        0.2583
     28 O         144.2755  142.1946  165.0546 O.3     1  UNL1       -0.4679
     29 C         143.0343  142.3329  165.8852 C.ar    1  UNL1        0.1724
     30 C         143.1022  142.1469  167.3721 C.ar    1  UNL1        0.0400
     31 C         141.8608  142.2852  168.2027 C.ar    1  UNL1        0.0033
     32 C         140.5516  142.6096  167.5465 C.ar    1  UNL1        0.0033
     33 C         140.4836  142.7956  166.0596 C.ar    1  UNL1        0.0401
     34 C         141.7249  142.6573  165.2290 C.ar    1  UNL1        0.1729
     35 O         141.6570  142.8433  163.7421 O.3     1  UNL1       -0.4630
@<TRIPOS>BOND
     1    22    23    1
     2    23     9    1
     3     9    10   ar
     4    10    11   ar
     5    11    12   ar
     6    12    13   ar
     7    13     1    1
     8     1     2    1
     9     2     3    1
    10     3     4    1
    11     4     5   am
    12     5     6    2
    13     5    26    1
    14    26    27    1
    15    27    28    1
    16    28    29    1
    17    29    30   ar
    18    30    31   ar
    19    31    32   ar
    20    32    33   ar
    21    33    34   ar
    22    34    35    1
    23     4     7    1
    24     7     8    1
    25    13    14   ar
    26    14    15   ar
    27    15    16    1
    28    15    17   ar
    29    17    18   ar
    30    18    19   ar
    31    19    24    1
    32    24    25    1
    33    19     9   ar
    34    17    11   ar
    35     8     1    1
    36    35    26    1
    37    34    29   ar
    38    16    20    1
    39    16    21    1
@<TRIPOS>MOLECULE
*****
 35 39 0 0 0
SMALL
GASTEIGER

@<TRIPOS>ATOM
      1 N         143.4610  140.8827  162.0073 N.pl3   1  UNL1       -0.2747
      2 C         144.0066  141.8637  161.0123 C.3     1  UNL1        0.1151
      3 C         144.1052  141.4864  159.5638 C.3     1  UNL1        0.1150
      4 N         143.6582  140.1282  159.1104 N.am    1  UNL1       -0.2730
      5 C         143.7569  139.7510  157.6620 C.2     1  UNL1        0.2699
      6 O         143.3099  138.3928  157.2085 O.2     1  UNL1       -0.2708
      7 C         143.1126  139.1473  160.1054 C.3     1  UNL1        0.1150
      8 C         143.0140  139.5245  161.5538 C.3     1  UNL1        0.1151
      9 C         141.3475  140.4810  168.1816 C.ar    1  UNL1        0.1739
     10 C         141.4462  140.1038  166.7332 C.ar    1  UNL1        0.0593
     11 C         142.3550  140.8705  165.8187 C.ar    1  UNL1        0.0901
     12 N         142.4536  140.4932  164.3702 N.ar    1  UNL1       -0.2134
     13 C         143.3623  141.2599  163.4557 C.ar    1  UNL1        0.2214
     14 N         144.1725  142.4039  163.9897 N.ar    1  UNL1       -0.1991
     15 C         144.0739  142.7811  165.4381 C.ar    1  UNL1        0.1298
     16 N         144.8840  143.9250  165.9720 N.pl3   1  UNL1       -0.3425
     17 C         143.1651  142.0144  166.3526 C.ar    1  UNL1        0.0522
     18 C         143.0665  142.3916  167.8010 C.ar    1  UNL1        0.0443
     19 C         142.1577  141.6249  168.7155 C.ar    1  UNL1        0.1726
     20 H         145.4805  144.4282  165.3718 H       1  UNL1        0.1437
     21 H         144.8193  144.1726  166.9227 H       1  UNL1        0.1437
     22 C         139.1534  140.3294  169.5645 C.3     1  UNL1        0.2526
     23 O         140.4388  139.7143  169.0961 O.3     1  UNL1       -0.4683
     24 O         142.0591  142.0022  170.1640 O.3     1  UNL1       -0.4684
     25 C         142.9079  143.1122  170.7094 C.3     1  UNL1        0.2526
     26 C         144.3025  140.7320  156.6670 C.3     1  UNL1        0.2845
     27 C         143.3695  141.6302  155.9103 C.3     1  UNL1        0.2583
     28 O         143.9151  142.6112  154.9153 O.3     1  UNL1       -0.4679
     29 C         145.3937  142.6939  154.6769 C.ar    1  UNL1        0.1724
     30 C         145.9393  143.6748  153.6819 C.ar    1  UNL1        0.0400
     31 C         147.4180  143.7575  153.4436 C.ar    1  UNL1        0.0033
     32 C         148.3510  142.8592  154.2003 C.ar    1  UNL1        0.0033
     33 C         147.8054  141.8783  155.1953 C.ar    1  UNL1        0.0401
     34 C         146.3268  141.7956  155.4336 C.ar    1  UNL1        0.1729
     35 O         145.7812  140.8147  156.4287 O.3     1  UNL1       -0.4630
@<TRIPOS>BOND
     1    22    23    1
     2    23     9    1
     3     9    10   ar
     4    10    11   ar
     5    11    12   ar
     6    12    13   ar
     7    13     1    1
     8     1     2    1
     9     2     3    1
    10     3     4    1
    11     4     5   am
    12     5     6    2
    13     5    26    1
    14    26    27    1
    15    27    28    1
    16    28    29    1
    17    29    30   ar
    18    30    31   ar
    19    31    32   ar
    20    32    33   ar
    21    33    34   ar
    22    34    35    1
    23     4     7    1
    24     7     8    1
    25    13    14   ar
    26    14    15   ar
    27    15    16    1
    28    15    17   ar
    29    17    18   ar
    30    18    19   ar
    31    19    24    1
    32    24    25    1
    33    19     9   ar
    34    17    11   ar
    35     8     1    1
    36    35    26    1
    37    34    29   ar
    38    16    20    1
    39    16    21    1
@<TRIPOS>MOLECULE
*****
 35 39 0 0 0
SMALL
GASTEIGER

@<TRIPOS>ATOM
      1 N         142.7714  142.5338  159.2287 N.pl3   1  UNL1       -0.2747
      2 C         142.7241  141.7402  160.5007 C.3     1  UNL1        0.1151
      3 C         141.4922  141.7672  161.3562 C.3     1  UNL1        0.1150
      4 N         140.3076  142.5877  160.9396 N.am    1  UNL1       -0.2730
      5 C         139.0758  142.6147  161.7951 C.2     1  UNL1        0.2699
      6 O         137.8912  143.4352  161.3786 O.2     1  UNL1       -0.2708
      7 C         140.3549  143.3813  159.6676 C.3     1  UNL1        0.1150
      8 C         141.5867  143.3544  158.8122 C.3     1  UNL1        0.1151
      9 C         146.2827  141.5935  153.7940 C.ar    1  UNL1        0.1739
     10 C         145.0509  141.6204  154.6495 C.ar    1  UNL1        0.0593
     11 C         145.1430  142.0502  156.0836 C.ar    1  UNL1        0.0901
     12 N         143.9111  142.0771  156.9391 N.ar    1  UNL1       -0.2134
     13 C         144.0032  142.5069  158.3733 C.ar    1  UNL1        0.2214
     14 N         145.3272  142.9097  158.9520 N.ar    1  UNL1       -0.1991
     15 C         146.5590  142.8828  158.0965 C.ar    1  UNL1        0.1298
     16 N         147.8829  143.2856  158.6752 N.pl3   1  UNL1       -0.3425
     17 C         146.4669  142.4530  156.6623 C.ar    1  UNL1        0.0522
     18 C         147.6987  142.4261  155.8069 C.ar    1  UNL1        0.0443
     19 C         147.6067  141.9963  154.3727 C.ar    1  UNL1        0.1726
     20 H         147.9433  143.5677  159.6165 H       1  UNL1        0.1437
     21 H         148.6914  143.2679  158.1138 H       1  UNL1        0.1437
     22 C         146.4772  139.7403  151.9836 C.3     1  UNL1        0.2526
     23 O         146.1907  141.1637  152.3599 O.3     1  UNL1       -0.4683
     24 O         148.8386  141.9694  153.5173 O.3     1  UNL1       -0.4684
     25 C         149.0865  143.0664  152.5247 C.3     1  UNL1        0.2526
     26 C         139.0285  141.8211  163.0671 C.3     1  UNL1        0.2845
     27 C         138.3332  140.4923  163.0967 C.3     1  UNL1        0.2583
     28 O         138.2859  139.6987  164.3686 O.3     1  UNL1       -0.4679
     29 C         138.9339  140.2339  165.6110 C.ar    1  UNL1        0.1724
     30 C         138.8867  139.4403  166.8830 C.ar    1  UNL1        0.0400
     31 C         139.5347  139.9755  168.1255 C.ar    1  UNL1        0.0033
     32 C         140.2301  141.3042  168.0959 C.ar    1  UNL1        0.0033
     33 C         140.2774  142.0978  166.8239 C.ar    1  UNL1        0.0401
     34 C         139.6293  141.5627  165.5815 C.ar    1  UNL1        0.1729
     35 O         139.6766  142.3563  164.3095 O.3     1  UNL1       -0.4630
@<TRIPOS>BOND
     1    22    23    1
     2    23     9    1
     3     9    10   ar
     4    10    11   ar
     5    11    12   ar
     6    12    13   ar
     7    13     1    1
     8     1     2    1
     9     2     3    1
    10     3     4    1
    11     4     5   am
    12     5     6    2
    13     5    26    1
    14    26    27    1
    15    27    28    1
    16    28    29    1
    17    29    30   ar
    18    30    31   ar
    19    31    32   ar
    20    32    33   ar
    21    33    34   ar
    22    34    35    1
    23     4     7    1
    24     7     8    1
    25    13    14   ar
    26    14    15   ar
    27    15    16    1
    28    15    17   ar
    29    17    18   ar
    30    18    19   ar
    31    19    24    1
    32    24    25    1
    33    19     9   ar
    34    17    11   ar
    35     8     1    1
    36    35    26    1
    37    34    29   ar
    38    16    20    1
    39    16    21    1
