@<TRIPOS>MOLECULE
*****
 24 27 0 0 0
SMALL
GASTEIGER

@<TRIPOS>ATOM
      1 C         139.5312  140.3055  166.5379 C.ar    1  UNL1        0.0267
      2 C         139.1135  139.0562  165.8207 C.ar    1  UNL1        0.1011
      3 N         138.5812  139.1375  164.4207 N.ar    1  UNL1       -0.2251
      4 C         138.4666  140.4683  163.7380 C.ar    1  UNL1        0.1633
      5 C         138.8844  141.7176  164.4553 C.ar    1  UNL1        0.0986
      6 C         139.4167  141.6362  165.8553 C.ar    1  UNL1        0.0224
      7 N         138.6583  142.8790  163.5333 N.ar    1  UNL1       -0.2694
      8 C         138.1008  142.3475  162.2462 C.ar    1  UNL1        0.3331
      9 O         137.7274  143.1628  161.0437 O.2     1  UNL1       -0.2462
     10 N         137.9823  140.8575  162.3727 N.ar    1  UNL1       -0.2630
     11 C         137.4696  139.9212  161.3189 C.3     1  UNL1        0.1366
     12 C         142.8363  139.9739  170.6426 C.3     1  UNL1        0.0382
     13 C         141.5827  140.0718  169.8247 C.ar    1  UNL1        0.0076
     14 C         140.1826  140.1262  170.3602 C.ar    1  UNL1        0.0027
     15 C         139.2437  140.2204  169.1942 C.ar    1  UNL1        0.0067
     16 C         140.0636  140.2242  167.9380 C.ar    1  UNL1        0.0307
     17 S         141.5091  140.1323  168.3277 S.2     1  UNL1       -0.0912
     18 C         138.9403  144.3191  163.8440 C.3     1  UNL1        0.1956
     19 C         140.1117  145.0080  163.2089 C.2     1  UNL1        0.2489
     20 O         139.8866  146.0633  162.1670 O.2     1  UNL1       -0.2728
     21 N         141.5082  144.6415  163.6158 N.am    1  UNL1       -0.2778
     22 C         142.8820  145.0945  163.2188 C.3     1  UNL1        0.0952
     23 C         143.4831  144.1233  164.1911 C.3     1  UNL1        0.0430
     24 C         142.1093  143.6704  164.5881 C.3     1  UNL1        0.0952
@<TRIPOS>BOND
     1    12    13    1
     2    13    14   ar
     3    14    15   ar
     4    15    16   ar
     5    16     1    1
     6     1     2   ar
     7     2     3   ar
     8     3     4   ar
     9     4     5   ar
    10     5     6   ar
    11     5     7   ar
    12     7    18    1
    13    18    19    1
    14    19    20    2
    15    19    21   am
    16    21    22    1
    17    22    23    1
    18    23    24    1
    19     7     8   ar
    20     8     9    2
    21     8    10   ar
    22    10    11    1
    23    16    17   ar
    24    17    13   ar
    25     6     1   ar
    26    24    21    1
    27    10     4   ar
@<TRIPOS>MOLECULE
*****
 24 27 0 0 0
SMALL
GASTEIGER

@<TRIPOS>ATOM
      1 C         141.8020  142.4469  166.4263 C.ar    1  UNL1        0.0267
      2 C         140.4046  142.9871  166.3539 C.ar    1  UNL1        0.1011
      3 N         139.9363  143.6921  165.1156 N.ar    1  UNL1       -0.2251
      4 C         140.8654  143.8569  163.9496 C.ar    1  UNL1        0.1633
      5 C         142.2628  143.3167  164.0219 C.ar    1  UNL1        0.0986
      6 C         142.7312  142.6117  165.2603 C.ar    1  UNL1        0.0224
      7 N         142.9477  143.6274  162.7241 N.ar    1  UNL1       -0.2694
      8 C         141.9734  144.3597  161.8495 C.ar    1  UNL1        0.3331
      9 O         142.2395  144.8619  160.4613 O.2     1  UNL1       -0.2462
     10 N         140.6865  144.5015  162.6069 N.ar    1  UNL1       -0.2630
     11 C         139.4396  145.1704  162.1091 C.3     1  UNL1        0.1366
     12 C         142.5945  138.7327  170.0949 C.3     1  UNL1        0.0382
     13 C         142.6347  140.0347  169.3509 C.ar    1  UNL1        0.0076
     14 C         143.3478  141.2793  169.7898 C.ar    1  UNL1        0.0027
     15 C         143.1226  142.3343  168.7476 C.ar    1  UNL1        0.0067
     16 C         142.2704  141.7418  167.6647 C.ar    1  UNL1        0.0307
     17 S         141.9689  140.3206  168.0376 S.2     1  UNL1       -0.0912
     18 C         144.3589  143.2689  162.3640 C.3     1  UNL1        0.1956
     19 C         144.7853  141.8309  162.3424 C.2     1  UNL1        0.2489
     20 O         145.9189  141.3717  163.2107 O.2     1  UNL1       -0.2728
     21 N         144.0779  140.8521  161.4527 N.am    1  UNL1       -0.2778
     22 C         144.2147  139.3855  161.1692 C.3     1  UNL1        0.0952
     23 C         143.0777  139.4679  160.1944 C.3     1  UNL1        0.0430
     24 C         142.9409  140.9346  160.4778 C.3     1  UNL1        0.0952
@<TRIPOS>BOND
     1    12    13    1
     2    13    14   ar
     3    14    15   ar
     4    15    16   ar
     5    16     1    1
     6     1     2   ar
     7     2     3   ar
     8     3     4   ar
     9     4     5   ar
    10     5     6   ar
    11     5     7   ar
    12     7    18    1
    13    18    19    1
    14    19    20    2
    15    19    21   am
    16    21    22    1
    17    22    23    1
    18    23    24    1
    19     7     8   ar
    20     8     9    2
    21     8    10   ar
    22    10    11    1
    23    16    17   ar
    24    17    13   ar
    25     6     1   ar
    26    24    21    1
    27    10     4   ar
@<TRIPOS>MOLECULE
*****
 24 27 0 0 0
SMALL
GASTEIGER

@<TRIPOS>ATOM
      1 C         142.3335  139.8388  166.4474 C.ar    1  UNL1        0.0267
      2 C         143.4681  139.1668  165.7326 C.ar    1  UNL1        0.1011
      3 N         143.2775  138.6586  164.3342 N.ar    1  UNL1       -0.2251
      4 C         141.9524  138.8223  163.6508 C.ar    1  UNL1        0.1633
      5 C         140.8178  139.4943  164.3657 C.ar    1  UNL1        0.0986
      6 C         141.0083  140.0025  165.7640 C.ar    1  UNL1        0.0224
      7 N         139.6349  139.5128  163.4435 N.ar    1  UNL1       -0.2694
      8 C         140.0384  138.8522  162.1586 C.ar    1  UNL1        0.3331
      9 O         139.1632  138.6533  160.9567 O.2     1  UNL1       -0.2462
     10 N         141.4707  138.4255  162.2867 N.ar    1  UNL1       -0.2630
     11 C         142.2794  137.7249  161.2354 C.3     1  UNL1        0.1366
     12 C         143.0775  143.0659  170.5601 C.3     1  UNL1        0.0382
     13 C         142.8660  141.8303  169.7362 C.ar    1  UNL1        0.0076
     14 C         142.7685  140.4278  170.2592 C.ar    1  UNL1        0.0027
     15 C         142.5572  139.5111  169.0909 C.ar    1  UNL1        0.0067
     16 C         142.5241  140.3470  167.8458 C.ar    1  UNL1        0.0307
     17 S         142.7149  141.7804  168.2447 S.2     1  UNL1       -0.0912
     18 C         138.2854  140.0904  163.7520 C.3     1  UNL1        0.1956
     19 C         137.8632  141.3863  163.1255 C.2     1  UNL1        0.2489
     20 O         137.1124  141.3819  161.8269 O.2     1  UNL1       -0.2728
     21 N         138.1918  142.6864  163.7975 N.am    1  UNL1       -0.2778
     22 C         137.9452  144.1331  163.4867 C.3     1  UNL1        0.0952
     23 C         138.6564  144.5252  164.7478 C.3     1  UNL1        0.0430
     24 C         138.9030  143.0785  165.0586 C.3     1  UNL1        0.0952
@<TRIPOS>BOND
     1    12    13    1
     2    13    14   ar
     3    14    15   ar
     4    15    16   ar
     5    16     1    1
     6     1     2   ar
     7     2     3   ar
     8     3     4   ar
     9     4     5   ar
    10     5     6   ar
    11     5     7   ar
    12     7    18    1
    13    18    19    1
    14    19    20    2
    15    19    21   am
    16    21    22    1
    17    22    23    1
    18    23    24    1
    19     7     8   ar
    20     8     9    2
    21     8    10   ar
    22    10    11    1
    23    16    17   ar
    24    17    13   ar
    25     6     1   ar
    26    24    21    1
    27    10     4   ar
@<TRIPOS>MOLECULE
*****
 24 27 0 0 0
SMALL
GASTEIGER

@<TRIPOS>ATOM
      1 C         139.5487  139.7013  165.8760 C.ar    1  UNL1        0.0267
      2 C         138.8220  139.3422  167.1381 C.ar    1  UNL1        0.1011
      3 N         139.3134  139.8564  168.4587 N.ar    1  UNL1       -0.2251
      4 C         140.5315  140.7297  168.5172 C.ar    1  UNL1        0.1633
      5 C         141.2583  141.0888  167.2552 C.ar    1  UNL1        0.0986
      6 C         140.7669  140.5746  165.9346 C.ar    1  UNL1        0.0224
      7 N         142.4216  141.9616  167.6225 N.ar    1  UNL1       -0.2694
      8 C         142.4138  142.1420  169.1116 C.ar    1  UNL1        0.3331
      9 O         143.4009  142.9431  169.9079 O.2     1  UNL1       -0.2462
     10 N         141.2457  141.3806  169.6647 N.ar    1  UNL1       -0.2630
     11 C         140.8595  141.2866  171.1110 C.3     1  UNL1        0.1366
     12 C         137.4690  139.4934  161.0270 C.3     1  UNL1        0.0382
     13 C         138.1014  139.0916  162.3265 C.ar    1  UNL1        0.0076
     14 C         138.5009  137.7001  162.7196 C.ar    1  UNL1        0.0027
     15 C         139.0916  137.7593  164.0971 C.ar    1  UNL1        0.0067
     16 C         139.0573  139.1871  164.5553 C.ar    1  UNL1        0.0307
     17 S         138.4453  140.0105  163.4610 S.2     1  UNL1       -0.0912
     18 C         143.4178  142.5507  166.6683 C.3     1  UNL1        0.1956
     19 C         143.0820  142.6677  165.2110 C.2     1  UNL1        0.2489
     20 O         142.0732  143.6787  164.7526 O.2     1  UNL1       -0.2728
     21 N         143.7550  141.7736  164.2122 N.am    1  UNL1       -0.2778
     22 C         143.6819  141.6019  162.7238 C.3     1  UNL1        0.0952
     23 C         144.7067  140.5092  162.7995 C.3     1  UNL1        0.0430
     24 C         144.7797  140.6809  164.2879 C.3     1  UNL1        0.0952
@<TRIPOS>BOND
     1    12    13    1
     2    13    14   ar
     3    14    15   ar
     4    15    16   ar
     5    16     1    1
     6     1     2   ar
     7     2     3   ar
     8     3     4   ar
     9     4     5   ar
    10     5     6   ar
    11     5     7   ar
    12     7    18    1
    13    18    19    1
    14    19    20    2
    15    19    21   am
    16    21    22    1
    17    22    23    1
    18    23    24    1
    19     7     8   ar
    20     8     9    2
    21     8    10   ar
    22    10    11    1
    23    16    17   ar
    24    17    13   ar
    25     6     1   ar
    26    24    21    1
    27    10     4   ar
@<TRIPOS>MOLECULE
*****
 24 27 0 0 0
SMALL
GASTEIGER

@<TRIPOS>ATOM
      1 C         141.3813  138.8019  163.6737 C.ar    1  UNL1        0.0267
      2 C         142.0252  137.8451  162.7146 C.ar    1  UNL1        0.1011
      3 N         141.5167  137.7376  161.3076 N.ar    1  UNL1       -0.2251
      4 C         140.3643  138.5868  160.8596 C.ar    1  UNL1        0.1633
      5 C         139.7204  139.5436  161.8187 C.ar    1  UNL1        0.0986
      6 C         140.2289  139.6512  163.2257 C.ar    1  UNL1        0.0224
      7 N         138.6095  140.2466  161.0964 N.ar    1  UNL1       -0.2694
      8 C         138.5668  139.7242  159.6910 C.ar    1  UNL1        0.3331
      9 O         137.6078  140.1525  158.6199 O.2     1  UNL1       -0.2462
     10 N         139.6513  138.6984  159.5446 N.ar    1  UNL1       -0.2630
     11 C         139.9674  137.9207  158.3015 C.3     1  UNL1        0.1366
     12 C         141.7716  140.0425  168.7913 C.3     1  UNL1        0.0382
     13 C         142.0692  139.4797  167.4331 C.ar    1  UNL1        0.0076
     14 C         143.2755  138.6702  167.0591 C.ar    1  UNL1        0.0027
     15 C         143.1645  138.3178  165.6053 C.ar    1  UNL1        0.0067
     16 C         141.8898  138.9095  165.0808 C.ar    1  UNL1        0.0307
     17 S         141.2129  139.6276  166.2105 S.2     1  UNL1       -0.0912
     18 C         137.7008  141.2889  161.6776 C.3     1  UNL1        0.1956
     19 C         138.1398  142.7223  161.7290 C.2     1  UNL1        0.2489
     20 O         138.4711  143.4511  160.4605 O.2     1  UNL1       -0.2728
     21 N         138.2474  143.4269  163.0488 N.am    1  UNL1       -0.2778
     22 C         138.6380  144.8079  163.4852 C.3     1  UNL1        0.0952
     23 C         138.3996  144.4234  164.9153 C.3     1  UNL1        0.0430
     24 C         138.0090  143.0424  164.4789 C.3     1  UNL1        0.0952
@<TRIPOS>BOND
     1    12    13    1
     2    13    14   ar
     3    14    15   ar
     4    15    16   ar
     5    16     1    1
     6     1     2   ar
     7     2     3   ar
     8     3     4   ar
     9     4     5   ar
    10     5     6   ar
    11     5     7   ar
    12     7    18    1
    13    18    19    1
    14    19    20    2
    15    19    21   am
    16    21    22    1
    17    22    23    1
    18    23    24    1
    19     7     8   ar
    20     8     9    2
    21     8    10   ar
    22    10    11    1
    23    16    17   ar
    24    17    13   ar
    25     6     1   ar
    26    24    21    1
    27    10     4   ar
@<TRIPOS>MOLECULE
*****
 24 27 0 0 0
SMALL
GASTEIGER

@<TRIPOS>ATOM
      1 C         139.7177  140.2604  166.2162 C.ar    1  UNL1        0.0267
      2 C         138.3398  140.1324  165.6375 C.ar    1  UNL1        0.1011
      3 N         138.1501  139.5225  164.2803 N.ar    1  UNL1       -0.2251
      4 C         139.3383  139.0408  163.5017 C.ar    1  UNL1        0.1633
      5 C         140.7162  139.1689  164.0804 C.ar    1  UNL1        0.0986
      6 C         140.9059  139.7787  165.4376 C.ar    1  UNL1        0.0224
      7 N         141.6902  138.6091  163.0865 N.ar    1  UNL1       -0.2694
      8 C         140.9143  138.1350  161.8935 C.ar    1  UNL1        0.3331
      9 O         141.4908  137.5048  160.6604 O.2     1  UNL1       -0.2462
     10 N         139.4607  138.4018  162.1501 N.ar    1  UNL1       -0.2630
     11 C         138.3283  138.0853  161.2187 C.3     1  UNL1        0.1366
     12 C         141.1245  143.5701  170.0825 C.3     1  UNL1        0.0382
     13 C         140.5541  142.3916  169.3506 C.ar    1  UNL1        0.0076
     14 C         139.8449  141.2258  169.9735 C.ar    1  UNL1        0.0027
     15 C         139.4453  140.2856  168.8752 C.ar    1  UNL1        0.0067
     16 C         139.9075  140.8703  167.5734 C.ar    1  UNL1        0.0307
     17 S         140.5928  142.1718  167.8673 S.2     1  UNL1       -0.0912
     18 C         143.1788  138.5362  163.2558 C.3     1  UNL1        0.1956
     19 C         144.0653  139.4971  162.5205 C.2     1  UNL1        0.2489
     20 O         144.4404  139.2295  161.0930 O.2     1  UNL1       -0.2728
     21 N         144.5766  140.7258  163.2125 N.am    1  UNL1       -0.2778
     22 C         145.4533  141.8776  162.8189 C.3     1  UNL1        0.0952
     23 C         145.2998  142.4633  164.1912 C.3     1  UNL1        0.0430
     24 C         144.4232  141.3115  164.5848 C.3     1  UNL1        0.0952
@<TRIPOS>BOND
     1    12    13    1
     2    13    14   ar
     3    14    15   ar
     4    15    16   ar
     5    16     1    1
     6     1     2   ar
     7     2     3   ar
     8     3     4   ar
     9     4     5   ar
    10     5     6   ar
    11     5     7   ar
    12     7    18    1
    13    18    19    1
    14    19    20    2
    15    19    21   am
    16    21    22    1
    17    22    23    1
    18    23    24    1
    19     7     8   ar
    20     8     9    2
    21     8    10   ar
    22    10    11    1
    23    16    17   ar
    24    17    13   ar
    25     6     1   ar
    26    24    21    1
    27    10     4   ar
@<TRIPOS>MOLECULE
*****
 24 27 0 0 0
SMALL
GASTEIGER

@<TRIPOS>ATOM
      1 C         142.9339  141.0845  165.9251 C.ar    1  UNL1        0.0267
      2 C         143.6496  140.0598  165.0958 C.ar    1  UNL1        0.1011
      3 N         143.8908  140.3112  163.6369 N.ar    1  UNL1       -0.2251
      4 C         143.4163  141.5873  163.0072 C.ar    1  UNL1        0.1633
      5 C         142.7006  142.6120  163.8365 C.ar    1  UNL1        0.0986
      6 C         142.4594  142.3605  165.2955 C.ar    1  UNL1        0.0224
      7 N         142.3513  143.7673  162.9460 N.ar    1  UNL1       -0.2694
      8 C         142.8512  143.4567  161.5662 C.ar    1  UNL1        0.3331
      9 O         142.7165  144.3387  160.3603 O.2     1  UNL1       -0.2462
     10 N         143.5094  142.1094  161.6040 N.ar    1  UNL1       -0.2630
     11 C         144.1485  141.4074  160.4427 C.3     1  UNL1        0.1366
     12 C         141.9771  141.8480  171.0616 C.3     1  UNL1        0.0382
     13 C         142.2529  141.1840  169.7451 C.ar    1  UNL1        0.0076
     14 C         142.3900  139.7083  169.5135 C.ar    1  UNL1        0.0027
     15 C         142.6617  139.4914  168.0543 C.ar    1  UNL1        0.0067
     16 C         142.6926  140.8330  167.3841 C.ar    1  UNL1        0.0307
     17 S         142.4399  141.8791  168.4291 S.2     1  UNL1       -0.0912
     18 C         141.6290  145.0143  163.3621 C.3     1  UNL1        0.1956
     19 C         140.2169  145.2482  162.9135 C.2     1  UNL1        0.2489
     20 O         139.9014  146.3911  161.9946 O.2     1  UNL1       -0.2728
     21 N         139.1202  144.3393  163.3838 N.am    1  UNL1       -0.2778
     22 C         137.6395  144.2587  163.1581 C.3     1  UNL1        0.0952
     23 C         137.5693  143.0539  164.0489 C.3     1  UNL1        0.0430
     24 C         139.0501  143.1346  164.2746 C.3     1  UNL1        0.0952
@<TRIPOS>BOND
     1    12    13    1
     2    13    14   ar
     3    14    15   ar
     4    15    16   ar
     5    16     1    1
     6     1     2   ar
     7     2     3   ar
     8     3     4   ar
     9     4     5   ar
    10     5     6   ar
    11     5     7   ar
    12     7    18    1
    13    18    19    1
    14    19    20    2
    15    19    21   am
    16    21    22    1
    17    22    23    1
    18    23    24    1
    19     7     8   ar
    20     8     9    2
    21     8    10   ar
    22    10    11    1
    23    16    17   ar
    24    17    13   ar
    25     6     1   ar
    26    24    21    1
    27    10     4   ar
@<TRIPOS>MOLECULE
*****
 24 27 0 0 0
SMALL
GASTEIGER

@<TRIPOS>ATOM
      1 C         140.7890  143.0046  165.9459 C.ar    1  UNL1        0.0267
      2 C         139.6442  143.9685  165.8442 C.ar    1  UNL1        0.1011
      3 N         139.4447  144.7662  164.5897 N.ar    1  UNL1       -0.2251
      4 C         140.3900  144.6001  163.4369 C.ar    1  UNL1        0.1633
      5 C         141.5348  143.6362  163.5387 C.ar    1  UNL1        0.0986
      6 C         141.7343  142.8385  164.7932 C.ar    1  UNL1        0.0224
      7 N         142.2981  143.6852  162.2483 N.ar    1  UNL1       -0.2694
      8 C         141.6250  144.6794  161.3490 C.ar    1  UNL1        0.3331
      9 O         142.0556  145.0440  159.9592 O.2     1  UNL1       -0.2462
     10 N         140.4457  145.2448  162.0836 N.ar    1  UNL1       -0.2630
     11 C         139.4900  146.2742  161.5574 C.3     1  UNL1        0.1366
     12 C         142.4179  139.2956  169.3328 C.3     1  UNL1        0.0382
     13 C         141.7372  140.5020  168.7572 C.ar    1  UNL1        0.0076
     14 C         140.8539  141.4565  169.5047 C.ar    1  UNL1        0.0027
     15 C         140.3912  142.5102  168.5426 C.ar    1  UNL1        0.0067
     16 C         140.9886  142.2069  167.2005 C.ar    1  UNL1        0.0307
     17 S         141.8205  140.9658  167.3332 S.2     1  UNL1       -0.0912
     18 C         143.5199  142.8812  161.9156 C.3     1  UNL1        0.1956
     19 C         143.4368  141.3852  161.8445 C.2     1  UNL1        0.2489
     20 O         142.7046  140.7277  160.7125 O.2     1  UNL1       -0.2728
     21 N         144.0860  140.5467  162.9054 N.am    1  UNL1       -0.2778
     22 C         144.2122  139.0745  163.1643 C.3     1  UNL1        0.0952
     23 C         145.0040  139.3608  164.4056 C.3     1  UNL1        0.0430
     24 C         144.8778  140.8329  164.1467 C.3     1  UNL1        0.0952
@<TRIPOS>BOND
     1    12    13    1
     2    13    14   ar
     3    14    15   ar
     4    15    16   ar
     5    16     1    1
     6     1     2   ar
     7     2     3   ar
     8     3     4   ar
     9     4     5   ar
    10     5     6   ar
    11     5     7   ar
    12     7    18    1
    13    18    19    1
    14    19    20    2
    15    19    21   am
    16    21    22    1
    17    22    23    1
    18    23    24    1
    19     7     8   ar
    20     8     9    2
    21     8    10   ar
    22    10    11    1
    23    16    17   ar
    24    17    13   ar
    25     6     1   ar
    26    24    21    1
    27    10     4   ar
@<TRIPOS>MOLECULE
*****
 24 27 0 0 0
SMALL
GASTEIGER

@<TRIPOS>ATOM
      1 C         142.5238  142.1942  165.1349 C.ar    1  UNL1        0.0267
      2 C         142.9647  143.3991  164.3580 C.ar    1  UNL1        0.1011
      3 N         143.4411  143.2467  162.9439 N.ar    1  UNL1       -0.2251
      4 C         143.4765  141.8892  162.3066 C.ar    1  UNL1        0.1633
      5 C         143.0355  140.6843  163.0835 C.ar    1  UNL1        0.0986
      6 C         142.5591  140.8367  164.4976 C.ar    1  UNL1        0.0224
      7 N         143.1802  139.4828  162.1971 N.ar    1  UNL1       -0.2694
      8 C         143.7106  139.9453  160.8724 C.ar    1  UNL1        0.3331
      9 O         144.0061  139.0735  159.6880 O.2     1  UNL1       -0.2462
     10 N         143.8937  141.4325  160.9400 N.ar    1  UNL1       -0.2630
     11 C         144.4044  142.3092  159.8352 C.3     1  UNL1        0.1366
     12 C         142.4338  142.3818  170.4110 C.3     1  UNL1        0.0382
     13 C         142.0060  142.4328  168.9742 C.ar    1  UNL1        0.0076
     14 C         140.6225  142.7296  168.4762 C.ar    1  UNL1        0.0027
     15 C         140.6481  142.6763  166.9774 C.ar    1  UNL1        0.0067
     16 C         142.0474  142.3466  166.5491 C.ar    1  UNL1        0.0307
     17 S         142.8866  142.1962  167.7832 S.2     1  UNL1       -0.0912
     18 C         142.8521  138.0675  162.5700 C.3     1  UNL1        0.1956
     19 C         141.5629  137.7561  163.2708 C.2     1  UNL1        0.2489
     20 O         141.5788  137.2736  164.6910 O.2     1  UNL1       -0.2728
     21 N         140.2579  137.9273  162.5515 N.am    1  UNL1       -0.2778
     22 C         138.8152  137.7242  162.9087 C.3     1  UNL1        0.0952
     23 C         138.4122  138.1693  161.5342 C.3     1  UNL1        0.0430
     24 C         139.8548  138.3724  161.1769 C.3     1  UNL1        0.0952
@<TRIPOS>BOND
     1    12    13    1
     2    13    14   ar
     3    14    15   ar
     4    15    16   ar
     5    16     1    1
     6     1     2   ar
     7     2     3   ar
     8     3     4   ar
     9     4     5   ar
    10     5     6   ar
    11     5     7   ar
    12     7    18    1
    13    18    19    1
    14    19    20    2
    15    19    21   am
    16    21    22    1
    17    22    23    1
    18    23    24    1
    19     7     8   ar
    20     8     9    2
    21     8    10   ar
    22    10    11    1
    23    16    17   ar
    24    17    13   ar
    25     6     1   ar
    26    24    21    1
    27    10     4   ar
