@<TRIPOS>MOLECULE
*****
 40 45 0 0 0
SMALL
GASTEIGER

@<TRIPOS>ATOM
      1 C         139.8548  139.3649  162.9427 C.ar    1  UNL1        0.1472
      2 N         140.9473  138.4921  162.3997 N.ar    1  UNL1       -0.2248
      3 C         141.2006  138.4397  160.9221 C.ar    1  UNL1        0.1260
      4 C         142.1989  137.6782  160.1014 C.ar    1  UNL1        0.1212
      5 N         141.9768  138.0279  158.6598 N.ar    1  UNL1       -0.2264
      6 N         140.8413  139.0055  158.5895 N.ar    1  UNL1       -0.1586
      7 C         140.3616  139.2600  159.9878 C.ar    1  UNL1        0.1762
      8 C         139.2692  140.1328  160.5309 C.ar    1  UNL1        0.2829
      9 O         138.4302  140.9531  159.5965 O.2     1  UNL1       -0.2652
     10 N         139.0158  140.1851  162.0084 N.ar    1  UNL1       -0.2792
     11 C         141.5675  141.0928  164.6980 C.3     1  UNL1        0.0522
     12 C         140.4578  140.2812  165.2980 C.ar    1  UNL1        0.0623
     13 N         140.2044  140.3336  166.7755 N.ar    1  UNL1       -0.2480
     14 C         139.0946  139.5220  167.3753 C.ar    1  UNL1        0.0984
     15 C         138.2383  138.6581  166.4977 C.ar    1  UNL1        0.0208
     16 C         138.4917  138.6057  165.0202 C.ar    1  UNL1        0.0058
     17 C         139.6014  139.4173  164.4203 C.ar    1  UNL1        0.0478
     18 C         142.7538  137.4938  157.4931 C.ar    1  UNL1        0.0859
     19 C         143.3052  138.4362  156.4646 C.ar    1  UNL1        0.0194
     20 C         144.0822  137.9020  155.2980 C.ar    1  UNL1        0.0047
     21 C         144.3077  136.4255  155.1599 C.ar    1  UNL1        0.0372
     22 C         143.7563  135.4831  156.1884 C.ar    1  UNL1        0.1458
     23 C         142.9794  136.0173  157.3550 C.ar    1  UNL1        0.0562
     24 O         143.9819  134.0066  156.0504 O.3     1  UNL1       -0.4236
     25 C         143.8541  133.1133  157.2485 C.3     1  UNL1        0.5087
     26 F         142.7385  132.1132  157.3229 F       1  UNL1       -0.1550
     27 F         144.8418  133.2199  158.3724 F       1  UNL1       -0.1550
     28 C         137.9234  141.0579  162.5515 C.3     1  UNL1        0.1119
     29 C         138.2620  142.3672  163.2002 C.3     1  UNL1        0.0388
     30 C         137.4380  142.8710  164.3480 C.3     1  UNL1        0.0048
     31 C         137.7767  144.1803  164.9967 C.3     1  UNL1        0.0174
     32 C         138.9394  144.9860  164.4976 C.3     1  UNL1        0.0722
     33 N         139.7635  144.4823  163.3499 N.3     1  UNL1       -0.2706
     34 C         139.4247  143.1729  162.7012 C.3     1  UNL1        0.0741
     35 C         140.9262  145.2880  162.8509 C.3     1  UNL1        0.1020
     36 C         142.3149  144.7263  162.9253 C.3     1  UNL1        0.1312
     37 C         143.0725  144.4112  164.1811 C.3     1  UNL1        0.0336
     38 C         144.4159  143.8712  163.7889 C.3     1  UNL1        0.0346
     39 C         144.4885  143.8524  162.2907 C.3     1  UNL1        0.1422
     40 O         143.1901  144.3809  161.7570 O.3     1  UNL1       -0.3548
@<TRIPOS>BOND
     1    11    12    1
     2    12    13   ar
     3    13    14   ar
     4    14    15   ar
     5    15    16   ar
     6    16    17   ar
     7    17     1    1
     8     1     2   ar
     9     2     3   ar
    10     3     4   ar
    11     4     5   ar
    12     5    18    1
    13    18    19   ar
    14    19    20   ar
    15    20    21   ar
    16    21    22   ar
    17    22    24    1
    18    24    25    1
    19    25    26    1
    20    25    27    1
    21    22    23   ar
    22     5     6   ar
    23     6     7   ar
    24     7     8   ar
    25     8     9    2
    26     8    10   ar
    27    10    28    1
    28    29    28    1
    29    29    30    1
    30    30    31    1
    31    31    32    1
    32    32    33    1
    33    33    35    1
    34    36    35    1
    35    36    37    1
    36    37    38    1
    37    38    39    1
    38    39    40    1
    39    33    34    1
    40    17    12   ar
    41    10     1   ar
    42    34    29    1
    43     7     3   ar
    44    40    36    1
    45    23    18   ar
@<TRIPOS>MOLECULE
*****
 40 45 0 0 0
SMALL
GASTEIGER

@<TRIPOS>ATOM
      1 C         142.3809  143.3328  161.7820 C.ar    1  UNL1        0.1472
      2 N         142.7560  143.8660  160.4310 N.ar    1  UNL1       -0.2248
      3 C         141.7524  144.6335  159.6225 C.ar    1  UNL1        0.1260
      4 C         141.8334  145.2753  158.2692 C.ar    1  UNL1        0.1212
      5 N         140.5047  145.9063  157.9753 N.ar    1  UNL1       -0.2264
      6 N         139.6026  145.6545  159.1470 N.ar    1  UNL1       -0.1586
      7 C         140.3737  144.8679  160.1650 C.ar    1  UNL1        0.1762
      8 C         139.9986  144.3347  161.5160 C.ar    1  UNL1        0.2829
      9 O         138.6199  144.5690  162.0584 O.2     1  UNL1       -0.2652
     10 N         141.0023  143.5671  162.3244 N.ar    1  UNL1       -0.2792
     11 C         143.9017  144.7011  163.9762 C.3     1  UNL1        0.0522
     12 C         144.1450  143.2494  163.6876 C.ar    1  UNL1        0.0623
     13 N         145.1486  142.4818  164.4960 N.ar    1  UNL1       -0.2480
     14 C         145.3918  141.0301  164.2073 C.ar    1  UNL1        0.0984
     15 C         144.6314  140.3459  163.1102 C.ar    1  UNL1        0.0208
     16 C         143.6278  141.1135  162.3018 C.ar    1  UNL1        0.0058
     17 C         143.3846  142.5652  162.5905 C.ar    1  UNL1        0.0478
     18 C         140.1418  146.6573  156.7286 C.ar    1  UNL1        0.0859
     19 C         140.6673  146.2026  155.3993 C.ar    1  UNL1        0.0194
     20 C         140.3043  146.9537  154.1526 C.ar    1  UNL1        0.0047
     21 C         139.4159  148.1594  154.2351 C.ar    1  UNL1        0.0372
     22 C         138.8904  148.6142  155.5644 C.ar    1  UNL1        0.1458
     23 C         139.2533  147.8631  156.8111 C.ar    1  UNL1        0.0562
     24 O         138.0020  149.8199  155.6471 O.3     1  UNL1       -0.4236
     25 C         138.6031  151.1940  155.6733 C.3     1  UNL1        0.5087
     26 F         138.8396  151.9337  154.3901 F       1  UNL1       -0.1550
     27 F         138.9677  151.8282  156.9828 F       1  UNL1       -0.1550
     28 C         140.6271  143.0339  163.6754 C.3     1  UNL1        0.1119
     29 C         139.9168  141.7180  163.7915 C.3     1  UNL1        0.0388
     30 C         139.0202  141.4505  164.9640 C.3     1  UNL1        0.0048
     31 C         138.3099  140.1346  165.0801 C.3     1  UNL1        0.0174
     32 C         138.4961  139.0859  164.0238 C.3     1  UNL1        0.0722
     33 N         139.3927  139.3533  162.8514 N.3     1  UNL1       -0.2706
     34 C         140.1031  140.6694  162.7353 C.3     1  UNL1        0.0741
     35 C         139.5790  138.3047  161.7951 C.3     1  UNL1        0.1020
     36 C         140.9032  138.1619  161.1053 C.3     1  UNL1        0.1312
     37 C         142.1929  137.7479  161.7497 C.3     1  UNL1        0.0336
     38 C         143.2571  137.7381  160.6925 C.3     1  UNL1        0.0346
     39 C         142.6250  138.1461  159.3948 C.3     1  UNL1        0.1422
     40 O         141.1703  138.4080  159.6499 O.3     1  UNL1       -0.3548
@<TRIPOS>BOND
     1    11    12    1
     2    12    13   ar
     3    13    14   ar
     4    14    15   ar
     5    15    16   ar
     6    16    17   ar
     7    17     1    1
     8     1     2   ar
     9     2     3   ar
    10     3     4   ar
    11     4     5   ar
    12     5    18    1
    13    18    19   ar
    14    19    20   ar
    15    20    21   ar
    16    21    22   ar
    17    22    24    1
    18    24    25    1
    19    25    26    1
    20    25    27    1
    21    22    23   ar
    22     5     6   ar
    23     6     7   ar
    24     7     8   ar
    25     8     9    2
    26     8    10   ar
    27    10    28    1
    28    29    28    1
    29    29    30    1
    30    30    31    1
    31    31    32    1
    32    32    33    1
    33    33    35    1
    34    36    35    1
    35    36    37    1
    36    37    38    1
    37    38    39    1
    38    39    40    1
    39    33    34    1
    40    17    12   ar
    41    10     1   ar
    42    34    29    1
    43     7     3   ar
    44    40    36    1
    45    23    18   ar
@<TRIPOS>MOLECULE
*****
 40 45 0 0 0
SMALL
GASTEIGER

@<TRIPOS>ATOM
      1 C         140.1824  143.0984  162.7449 C.ar    1  UNL1        0.1472
      2 N         140.6921  144.2674  161.9552 N.ar    1  UNL1       -0.2248
      3 C         140.3245  144.4125  160.5082 C.ar    1  UNL1        0.1260
      4 C         140.6736  145.4505  159.4832 C.ar    1  UNL1        0.1212
      5 N         140.0121  145.0681  158.1924 N.ar    1  UNL1       -0.2264
      6 N         139.2541  143.7938  158.4197 N.ar    1  UNL1       -0.1586
      7 C         139.4472  143.3886  159.8510 C.ar    1  UNL1        0.1762
      8 C         138.9375  142.2196  160.6407 C.ar    1  UNL1        0.2829
      9 O         138.0602  141.1957  159.9835 O.2     1  UNL1       -0.2652
     10 N         139.3051  142.0746  162.0877 N.ar    1  UNL1       -0.2792
     11 C         138.3089  144.0768  164.8740 C.3     1  UNL1        0.0522
     12 C         139.6133  143.4425  165.2565 C.ar    1  UNL1        0.0623
     13 N         139.9809  143.2974  166.7035 N.ar    1  UNL1       -0.2480
     14 C         141.2853  142.6631  167.0860 C.ar    1  UNL1        0.0984
     15 C         142.2220  142.1739  166.0215 C.ar    1  UNL1        0.0208
     16 C         141.8544  142.3190  164.5745 C.ar    1  UNL1        0.0058
     17 C         140.5500  142.9533  164.1920 C.ar    1  UNL1        0.0478
     18 C         140.0941  145.8267  156.9010 C.ar    1  UNL1        0.0859
     19 C         140.9498  145.3119  155.7818 C.ar    1  UNL1        0.0194
     20 C         141.0317  146.0707  154.4904 C.ar    1  UNL1        0.0047
     21 C         140.2581  147.3442  154.3182 C.ar    1  UNL1        0.0372
     22 C         139.4024  147.8590  155.4375 C.ar    1  UNL1        0.1458
     23 C         139.3204  147.1002  156.7289 C.ar    1  UNL1        0.0562
     24 O         138.6287  149.1324  155.2654 O.3     1  UNL1       -0.4236
     25 C         138.4634  150.0717  156.4232 C.3     1  UNL1        0.5087
     26 F         139.0637  151.4452  156.3663 F       1  UNL1       -0.1550
     27 F         137.6978  149.6376  157.6378 F       1  UNL1       -0.1550
     28 C         138.7954  140.9055  162.8774 C.3     1  UNL1        0.1119
     29 C         139.6503  139.6848  163.0468 C.3     1  UNL1        0.0388
     30 C         139.0631  138.4325  163.6275 C.3     1  UNL1        0.0048
     31 C         139.9180  137.2118  163.7968 C.3     1  UNL1        0.0174
     32 C         141.3603  137.2431  163.3855 C.3     1  UNL1        0.0722
     33 N         141.9475  138.4953  162.8048 N.3     1  UNL1       -0.2706
     34 C         141.0924  139.7161  162.6355 C.3     1  UNL1        0.0741
     35 C         143.3896  138.5267  162.3935 C.3     1  UNL1        0.1020
     36 C         144.2395  139.7162  162.7290 C.3     1  UNL1        0.1312
     37 C         144.9596  139.9483  164.0242 C.3     1  UNL1        0.0336
     38 C         145.6837  141.2581  163.9239 C.3     1  UNL1        0.0346
     39 C         145.4111  141.8356  162.5666 C.3     1  UNL1        0.1422
     40 O         144.5186  140.8827  161.8281 O.3     1  UNL1       -0.3548
@<TRIPOS>BOND
     1    11    12    1
     2    12    13   ar
     3    13    14   ar
     4    14    15   ar
     5    15    16   ar
     6    16    17   ar
     7    17     1    1
     8     1     2   ar
     9     2     3   ar
    10     3     4   ar
    11     4     5   ar
    12     5    18    1
    13    18    19   ar
    14    19    20   ar
    15    20    21   ar
    16    21    22   ar
    17    22    24    1
    18    24    25    1
    19    25    26    1
    20    25    27    1
    21    22    23   ar
    22     5     6   ar
    23     6     7   ar
    24     7     8   ar
    25     8     9    2
    26     8    10   ar
    27    10    28    1
    28    29    28    1
    29    29    30    1
    30    30    31    1
    31    31    32    1
    32    32    33    1
    33    33    35    1
    34    36    35    1
    35    36    37    1
    36    37    38    1
    37    38    39    1
    38    39    40    1
    39    33    34    1
    40    17    12   ar
    41    10     1   ar
    42    34    29    1
    43     7     3   ar
    44    40    36    1
    45    23    18   ar
@<TRIPOS>MOLECULE
*****
 40 45 0 0 0
SMALL
GASTEIGER

@<TRIPOS>ATOM
      1 C         142.1779  142.4111  162.1988 C.ar    1  UNL1        0.1472
      2 N         142.3999  142.5842  160.7254 N.ar    1  UNL1       -0.2248
      3 C         141.6551  143.6480  159.9746 C.ar    1  UNL1        0.1260
      4 C         141.6668  144.0519  158.5301 C.ar    1  UNL1        0.1212
      5 N         140.7071  145.1921  158.3598 N.ar    1  UNL1       -0.2264
      6 N         140.1023  145.4929  159.6992 N.ar    1  UNL1       -0.1586
      7 C         140.6882  144.5385  160.6972 C.ar    1  UNL1        0.1762
      8 C         140.4662  144.3654  162.1705 C.ar    1  UNL1        0.2829
      9 O         139.4994  145.2560  162.8931 O.2     1  UNL1       -0.2652
     10 N         141.2111  143.3017  162.9213 N.ar    1  UNL1       -0.2792
     11 C         144.7854  143.0625  163.5315 C.3     1  UNL1        0.0522
     12 C         144.2266  141.6731  163.6160 C.ar    1  UNL1        0.0623
     13 N         144.9714  140.6093  164.3668 N.ar    1  UNL1       -0.2480
     14 C         144.4124  139.2199  164.4512 C.ar    1  UNL1        0.0984
     15 C         143.1087  138.8942  163.7848 C.ar    1  UNL1        0.0208
     16 C         142.3638  139.9580  163.0340 C.ar    1  UNL1        0.0058
     17 C         142.9228  141.3474  162.9496 C.ar    1  UNL1        0.0478
     18 C         140.4053  145.9062  157.0757 C.ar    1  UNL1        0.0859
     19 C         140.9952  145.4142  155.7874 C.ar    1  UNL1        0.0194
     20 C         140.6932  146.1284  154.5033 C.ar    1  UNL1        0.0047
     21 C         139.8014  147.3345  154.5075 C.ar    1  UNL1        0.0372
     22 C         139.2115  147.8265  155.7959 C.ar    1  UNL1        0.1458
     23 C         139.5135  147.1123  157.0800 C.ar    1  UNL1        0.0562
     24 O         138.3197  149.0325  155.8003 O.3     1  UNL1       -0.4236
     25 C         138.2971  149.9441  156.9913 C.3     1  UNL1        0.5087
     26 F         139.0664  151.2316  156.9652 F       1  UNL1       -0.1550
     27 F         137.5051  149.5683  158.2085 F       1  UNL1       -0.1550
     28 C         140.9890  143.1286  164.3947 C.3     1  UNL1        0.1119
     29 C         140.0944  142.0334  164.8948 C.3     1  UNL1        0.0388
     30 C         138.9909  141.5099  164.0239 C.3     1  UNL1        0.0048
     31 C         138.0963  140.4147  164.5240 C.3     1  UNL1        0.0174
     32 C         138.3051  139.8430  165.8950 C.3     1  UNL1        0.0722
     33 N         139.4085  140.3665  166.7659 N.3     1  UNL1       -0.2706
     34 C         140.3031  141.4617  166.2657 C.3     1  UNL1        0.0741
     35 C         139.6172  139.7948  168.1369 C.3     1  UNL1        0.1020
     36 C         140.7243  140.3141  169.0054 C.3     1  UNL1        0.1312
     37 C         142.0550  139.6574  169.2245 C.3     1  UNL1        0.0336
     38 C         142.8483  140.5187  170.1619 C.3     1  UNL1        0.0346
     39 C         142.0079  141.7077  170.5223 C.3     1  UNL1        0.1422
     40 O         140.6952  141.5813  169.8075 O.3     1  UNL1       -0.3548
@<TRIPOS>BOND
     1    11    12    1
     2    12    13   ar
     3    13    14   ar
     4    14    15   ar
     5    15    16   ar
     6    16    17   ar
     7    17     1    1
     8     1     2   ar
     9     2     3   ar
    10     3     4   ar
    11     4     5   ar
    12     5    18    1
    13    18    19   ar
    14    19    20   ar
    15    20    21   ar
    16    21    22   ar
    17    22    24    1
    18    24    25    1
    19    25    26    1
    20    25    27    1
    21    22    23   ar
    22     5     6   ar
    23     6     7   ar
    24     7     8   ar
    25     8     9    2
    26     8    10   ar
    27    10    28    1
    28    29    28    1
    29    29    30    1
    30    30    31    1
    31    31    32    1
    32    32    33    1
    33    33    35    1
    34    36    35    1
    35    36    37    1
    36    37    38    1
    37    38    39    1
    38    39    40    1
    39    33    34    1
    40    17    12   ar
    41    10     1   ar
    42    34    29    1
    43     7     3   ar
    44    40    36    1
    45    23    18   ar
@<TRIPOS>MOLECULE
*****
 40 45 0 0 0
SMALL
GASTEIGER

@<TRIPOS>ATOM
      1 C         140.2645  140.1918  159.8794 C.ar    1  UNL1        0.1472
      2 N         139.6349  139.2304  158.9151 N.ar    1  UNL1       -0.2248
      3 C         140.4962  138.4329  157.9813 C.ar    1  UNL1        0.1260
      4 C         140.1629  137.4166  156.9297 C.ar    1  UNL1        0.1212
      5 N         141.4476  136.9523  156.3101 N.ar    1  UNL1       -0.2264
      6 N         142.5749  137.6816  156.9787 N.ar    1  UNL1       -0.1586
      7 C         141.9870  138.5968  158.0116 C.ar    1  UNL1        0.1762
      8 C         142.6164  139.5581  158.9758 C.ar    1  UNL1        0.2829
      9 O         144.1071  139.7219  159.0061 O.2     1  UNL1       -0.2652
     10 N         141.7551  140.3556  159.9097 N.ar    1  UNL1       -0.2792
     11 C         139.2750  142.9030  159.0608 C.3     1  UNL1        0.0522
     12 C         138.9084  142.3449  160.4041 C.ar    1  UNL1        0.0623
     13 N         138.0471  143.1424  161.3380 N.ar    1  UNL1       -0.2480
     14 C         137.6805  142.5843  162.6811 C.ar    1  UNL1        0.0984
     15 C         138.1753  141.2286  163.0904 C.ar    1  UNL1        0.0208
     16 C         139.0366  140.4312  162.1565 C.ar    1  UNL1        0.0058
     17 C         139.4031  140.9893  160.8133 C.ar    1  UNL1        0.0478
     18 C         141.5815  135.9368  155.2142 C.ar    1  UNL1        0.0859
     19 C         140.9787  136.2035  153.8668 C.ar    1  UNL1        0.0194
     20 C         141.1126  135.1880  152.7710 C.ar    1  UNL1        0.0047
     21 C         141.8493  133.9058  153.0225 C.ar    1  UNL1        0.0372
     22 C         142.4520  133.6391  154.3699 C.ar    1  UNL1        0.1458
     23 C         142.3181  134.6546  155.4657 C.ar    1  UNL1        0.0562
     24 O         143.1887  132.3569  154.6215 O.3     1  UNL1       -0.4236
     25 C         143.7757  132.0823  155.9743 C.3     1  UNL1        0.5087
     26 F         145.2624  132.1224  156.1689 F       1  UNL1       -0.1550
     27 F         142.8759  131.7676  157.1325 F       1  UNL1       -0.1550
     28 C         142.3846  141.3169  160.8739 C.3     1  UNL1        0.1119
     29 C         143.1322  140.8007  162.0673 C.3     1  UNL1        0.0388
     30 C         144.5440  141.2419  162.3165 C.3     1  UNL1        0.0048
     31 C         145.2916  140.7257  163.5100 C.3     1  UNL1        0.0174
     32 C         144.6274  139.7680  164.4544 C.3     1  UNL1        0.0722
     33 N         143.2156  139.3267  164.2053 N.3     1  UNL1       -0.2706
     34 C         142.4680  139.8431  163.0117 C.3     1  UNL1        0.0741
     35 C         142.5515  138.3692  165.1497 C.3     1  UNL1        0.1020
     36 C         141.0735  138.4565  165.3901 C.3     1  UNL1        0.1312
     37 C         140.0239  137.5963  164.7510 C.3     1  UNL1        0.0336
     38 C         138.6872  138.0276  165.2778 C.3     1  UNL1        0.0346
     39 C         138.9108  139.1543  166.2424 C.3     1  UNL1        0.1422
     40 O         140.3855  139.4194  166.3119 O.3     1  UNL1       -0.3548
@<TRIPOS>BOND
     1    11    12    1
     2    12    13   ar
     3    13    14   ar
     4    14    15   ar
     5    15    16   ar
     6    16    17   ar
     7    17     1    1
     8     1     2   ar
     9     2     3   ar
    10     3     4   ar
    11     4     5   ar
    12     5    18    1
    13    18    19   ar
    14    19    20   ar
    15    20    21   ar
    16    21    22   ar
    17    22    24    1
    18    24    25    1
    19    25    26    1
    20    25    27    1
    21    22    23   ar
    22     5     6   ar
    23     6     7   ar
    24     7     8   ar
    25     8     9    2
    26     8    10   ar
    27    10    28    1
    28    29    28    1
    29    29    30    1
    30    30    31    1
    31    31    32    1
    32    32    33    1
    33    33    35    1
    34    36    35    1
    35    36    37    1
    36    37    38    1
    37    38    39    1
    38    39    40    1
    39    33    34    1
    40    17    12   ar
    41    10     1   ar
    42    34    29    1
    43     7     3   ar
    44    40    36    1
    45    23    18   ar
@<TRIPOS>MOLECULE
*****
 40 45 0 0 0
SMALL
GASTEIGER

@<TRIPOS>ATOM
      1 C         142.8819  139.3611  160.6097 C.ar    1  UNL1        0.1472
      2 N         143.4861  138.5383  159.5106 N.ar    1  UNL1       -0.2248
      3 C         142.6150  137.9873  158.4208 C.ar    1  UNL1        0.1260
      4 C         142.9243  137.1489  157.2160 C.ar    1  UNL1        0.1212
      5 N         141.6403  136.9027  156.4807 N.ar    1  UNL1       -0.2264
      6 N         140.5375  137.5888  157.2310 N.ar    1  UNL1       -0.1586
      7 C         141.1399  138.2592  158.4300 C.ar    1  UNL1        0.1762
      8 C         140.5358  139.0820  159.5291 C.ar    1  UNL1        0.2829
      9 O         139.0607  139.3539  159.5384 O.2     1  UNL1       -0.2652
     10 N         141.4069  139.6330  160.6189 N.ar    1  UNL1       -0.2792
     11 C         144.1565  142.0583  160.2919 C.3     1  UNL1        0.0522
     12 C         144.3903  141.2607  161.5407 C.ar    1  UNL1        0.0623
     13 N         145.2613  141.8117  162.6305 N.ar    1  UNL1       -0.2480
     14 C         145.4951  141.0141  163.8792 C.ar    1  UNL1        0.0984
     15 C         144.8578  139.6655  164.0381 C.ar    1  UNL1        0.0208
     16 C         143.9867  139.1146  162.9482 C.ar    1  UNL1        0.0058
     17 C         143.7530  139.9122  161.6995 C.ar    1  UNL1        0.0478
     18 C         141.4862  136.1095  155.2169 C.ar    1  UNL1        0.0859
     19 C         140.6290  136.6329  154.1028 C.ar    1  UNL1        0.0194
     20 C         140.4750  135.8396  152.8390 C.ar    1  UNL1        0.0047
     21 C         141.1780  134.5230  152.6894 C.ar    1  UNL1        0.0372
     22 C         142.0351  133.9997  153.8035 C.ar    1  UNL1        0.1458
     23 C         142.1892  134.7929  155.0673 C.ar    1  UNL1        0.0562
     24 O         142.7382  132.6831  153.6540 O.3     1  UNL1       -0.4236
     25 C         143.1568  131.9139  154.8718 C.3     1  UNL1        0.5087
     26 F         142.1883  130.9846  155.5415 F       1  UNL1       -0.1550
     27 F         144.5438  132.0740  155.4200 F       1  UNL1       -0.1550
     28 C         140.8027  140.4559  161.7180 C.3     1  UNL1        0.1119
     29 C         140.2771  139.7871  162.9534 C.3     1  UNL1        0.0388
     30 C         139.7952  138.3679  162.8908 C.3     1  UNL1        0.0048
     31 C         139.2696  137.6991  164.1262 C.3     1  UNL1        0.0174
     32 C         139.2259  138.4494  165.4244 C.3     1  UNL1        0.0722
     33 N         139.7078  139.8685  165.4871 N.3     1  UNL1       -0.2706
     34 C         140.2334  140.5373  164.2516 C.3     1  UNL1        0.0741
     35 C         139.6640  140.6188  166.7853 C.3     1  UNL1        0.1020
     36 C         140.5259  140.1828  167.9329 C.3     1  UNL1        0.1312
     37 C         142.0102  139.9705  167.8900 C.3     1  UNL1        0.0336
     38 C         142.4564  139.5391  169.2555 C.3     1  UNL1        0.0346
     39 C         141.2479  139.4847  170.1424 C.3     1  UNL1        0.1422
     40 O         140.0547  139.8825  169.3250 O.3     1  UNL1       -0.3548
@<TRIPOS>BOND
     1    11    12    1
     2    12    13   ar
     3    13    14   ar
     4    14    15   ar
     5    15    16   ar
     6    16    17   ar
     7    17     1    1
     8     1     2   ar
     9     2     3   ar
    10     3     4   ar
    11     4     5   ar
    12     5    18    1
    13    18    19   ar
    14    19    20   ar
    15    20    21   ar
    16    21    22   ar
    17    22    24    1
    18    24    25    1
    19    25    26    1
    20    25    27    1
    21    22    23   ar
    22     5     6   ar
    23     6     7   ar
    24     7     8   ar
    25     8     9    2
    26     8    10   ar
    27    10    28    1
    28    29    28    1
    29    29    30    1
    30    30    31    1
    31    31    32    1
    32    32    33    1
    33    33    35    1
    34    36    35    1
    35    36    37    1
    36    37    38    1
    37    38    39    1
    38    39    40    1
    39    33    34    1
    40    17    12   ar
    41    10     1   ar
    42    34    29    1
    43     7     3   ar
    44    40    36    1
    45    23    18   ar
@<TRIPOS>MOLECULE
*****
 40 45 0 0 0
SMALL
GASTEIGER

@<TRIPOS>ATOM
      1 C         140.7588  141.1985  161.8185 C.ar    1  UNL1        0.1472
      2 N         140.6563  140.9410  160.3443 N.ar    1  UNL1       -0.2248
      3 C         141.3315  139.7439  159.7434 C.ar    1  UNL1        0.1260
      4 C         141.4057  139.2356  158.3341 C.ar    1  UNL1        0.1212
      5 N         142.2292  137.9818  158.3364 N.ar    1  UNL1       -0.2264
      6 N         142.6640  137.7153  159.7470 N.ar    1  UNL1       -0.1586
      7 C         142.1092  138.8044  160.6166 C.ar    1  UNL1        0.1762
      8 C         142.2116  139.0619  162.0908 C.ar    1  UNL1        0.2829
      9 O         142.9892  138.1223  162.9640 O.2     1  UNL1       -0.2652
     10 N         141.5364  140.2590  162.6917 N.ar    1  UNL1       -0.2792
     11 C         142.2635  143.7765  162.1177 C.3     1  UNL1        0.0522
     12 C         140.8359  143.6846  162.5691 C.ar    1  UNL1        0.0623
     13 N         140.1607  144.8817  163.1700 N.ar    1  UNL1       -0.2480
     14 C         138.7332  144.7897  163.6213 C.ar    1  UNL1        0.0984
     15 C         137.9809  143.5007  163.4718 C.ar    1  UNL1        0.0208
     16 C         138.6561  142.3036  162.8708 C.ar    1  UNL1        0.0058
     17 C         140.0836  142.3956  162.4195 C.ar    1  UNL1        0.0478
     18 C         142.5599  137.1420  157.1383 C.ar    1  UNL1        0.0859
     19 C         142.4882  137.7363  155.7629 C.ar    1  UNL1        0.0194
     20 C         142.8189  136.8963  154.5649 C.ar    1  UNL1        0.0047
     21 C         143.2213  135.4622  154.7422 C.ar    1  UNL1        0.0372
     22 C         143.2929  134.8680  156.1176 C.ar    1  UNL1        0.1458
     23 C         142.9622  135.7079  157.3156 C.ar    1  UNL1        0.0562
     24 O         143.6952  133.4339  156.2950 O.3     1  UNL1       -0.4236
     25 C         142.6450  132.3736  156.4464 C.3     1  UNL1        0.5087
     26 F         141.3437  132.4966  155.7107 F       1  UNL1       -0.1550
     27 F         142.8962  131.1904  157.3334 F       1  UNL1       -0.1550
     28 C         141.6389  140.5164  164.1659 C.3     1  UNL1        0.1119
     29 C         140.5715  140.0124  165.0913 C.3     1  UNL1        0.0388
     30 C         139.5083  139.0875  164.5770 C.3     1  UNL1        0.0048
     31 C         138.4409  138.5835  165.5023 C.3     1  UNL1        0.0174
     32 C         138.4365  139.0042  166.9422 C.3     1  UNL1        0.0722
     33 N         139.4996  139.9291  167.4566 N.3     1  UNL1       -0.2706
     34 C         140.5670  140.4331  166.5311 C.3     1  UNL1        0.0741
     35 C         139.4951  140.3498  168.8963 C.3     1  UNL1        0.1020
     36 C         140.4918  141.3580  169.3861 C.3     1  UNL1        0.1312
     37 C         140.2687  142.8374  169.4951 C.3     1  UNL1        0.0336
     38 C         141.5257  143.4576  170.0293 C.3     1  UNL1        0.0346
     39 C         142.5256  142.3616  170.2505 C.3     1  UNL1        0.1422
     40 O         141.8867  141.0640  169.8530 O.3     1  UNL1       -0.3548
@<TRIPOS>BOND
     1    11    12    1
     2    12    13   ar
     3    13    14   ar
     4    14    15   ar
     5    15    16   ar
     6    16    17   ar
     7    17     1    1
     8     1     2   ar
     9     2     3   ar
    10     3     4   ar
    11     4     5   ar
    12     5    18    1
    13    18    19   ar
    14    19    20   ar
    15    20    21   ar
    16    21    22   ar
    17    22    24    1
    18    24    25    1
    19    25    26    1
    20    25    27    1
    21    22    23   ar
    22     5     6   ar
    23     6     7   ar
    24     7     8   ar
    25     8     9    2
    26     8    10   ar
    27    10    28    1
    28    29    28    1
    29    29    30    1
    30    30    31    1
    31    31    32    1
    32    32    33    1
    33    33    35    1
    34    36    35    1
    35    36    37    1
    36    37    38    1
    37    38    39    1
    38    39    40    1
    39    33    34    1
    40    17    12   ar
    41    10     1   ar
    42    34    29    1
    43     7     3   ar
    44    40    36    1
    45    23    18   ar
@<TRIPOS>MOLECULE
*****
 40 45 0 0 0
SMALL
GASTEIGER

@<TRIPOS>ATOM
      1 C         139.9754  141.9595  162.4664 C.ar    1  UNL1        0.1472
      2 N         139.3942  142.1119  161.0919 N.ar    1  UNL1       -0.2248
      3 C         139.8161  143.2589  160.2223 C.ar    1  UNL1        0.1260
      4 C         139.4187  143.6650  158.8341 C.ar    1  UNL1        0.1212
      5 N         140.1762  144.9106  158.4809 N.ar    1  UNL1       -0.2264
      6 N         141.0417  145.2743  159.6507 N.ar    1  UNL1       -0.1586
      7 C         140.8192  144.2534  160.7270 C.ar    1  UNL1        0.1762
      8 C         141.4003  144.1010  162.1014 C.ar    1  UNL1        0.2829
      9 O         142.4034  145.0955  162.6061 O.2     1  UNL1       -0.2652
     10 N         140.9784  142.9540  162.9711 N.ar    1  UNL1       -0.2792
     11 C         137.8586  142.3595  164.5542 C.3     1  UNL1        0.0522
     12 C         138.4951  141.0124  164.3800 C.ar    1  UNL1        0.0623
     13 N         138.0732  139.8654  165.2497 N.ar    1  UNL1       -0.2480
     14 C         138.7097  138.5184  165.0755 C.ar    1  UNL1        0.0984
     15 C         139.7681  138.3183  164.0316 C.ar    1  UNL1        0.0208
     16 C         140.1900  139.4653  163.1619 C.ar    1  UNL1        0.0058
     17 C         139.5535  140.8124  163.3361 C.ar    1  UNL1        0.0478
     18 C         140.0842  145.6609  157.1852 C.ar    1  UNL1        0.0859
     19 C         140.6973  145.0882  155.9418 C.ar    1  UNL1        0.0194
     20 C         140.6054  145.8385  154.6462 C.ar    1  UNL1        0.0047
     21 C         139.9004  147.1615  154.5940 C.ar    1  UNL1        0.0372
     22 C         139.2873  147.7342  155.8374 C.ar    1  UNL1        0.1458
     23 C         139.3792  146.9838  157.1330 C.ar    1  UNL1        0.0562
     24 O         138.5822  149.0571  155.7853 O.3     1  UNL1       -0.4236
     25 C         138.4189  149.8696  157.0356 C.3     1  UNL1        0.5087
     26 F         139.1209  151.1883  157.1700 F       1  UNL1       -0.1550
     27 F         137.5536  149.3633  158.1513 F       1  UNL1       -0.1550
     28 C         141.5596  142.8015  164.3455 C.3     1  UNL1        0.1119
     29 C         142.3877  141.5966  164.6803 C.3     1  UNL1        0.0388
     30 C         143.3913  141.0784  163.6931 C.3     1  UNL1        0.0048
     31 C         144.2194  139.8734  164.0279 C.3     1  UNL1        0.0174
     32 C         144.0440  139.1865  165.3499 C.3     1  UNL1        0.0722
     33 N         143.0405  139.7046  166.3370 N.3     1  UNL1       -0.2706
     34 C         142.2124  140.9097  166.0022 C.3     1  UNL1        0.0741
     35 C         142.8652  139.0177  167.6589 C.3     1  UNL1        0.1020
     36 C         142.2540  139.7561  168.8125 C.3     1  UNL1        0.1312
     37 C         142.9737  140.6827  169.7472 C.3     1  UNL1        0.0336
     38 C         141.9802  141.1969  170.7465 C.3     1  UNL1        0.0346
     39 C         140.6464  140.5881  170.4295 C.3     1  UNL1        0.1422
     40 O         140.8156  139.6977  169.2343 O.3     1  UNL1       -0.3548
@<TRIPOS>BOND
     1    11    12    1
     2    12    13   ar
     3    13    14   ar
     4    14    15   ar
     5    15    16   ar
     6    16    17   ar
     7    17     1    1
     8     1     2   ar
     9     2     3   ar
    10     3     4   ar
    11     4     5   ar
    12     5    18    1
    13    18    19   ar
    14    19    20   ar
    15    20    21   ar
    16    21    22   ar
    17    22    24    1
    18    24    25    1
    19    25    26    1
    20    25    27    1
    21    22    23   ar
    22     5     6   ar
    23     6     7   ar
    24     7     8   ar
    25     8     9    2
    26     8    10   ar
    27    10    28    1
    28    29    28    1
    29    29    30    1
    30    30    31    1
    31    31    32    1
    32    32    33    1
    33    33    35    1
    34    36    35    1
    35    36    37    1
    36    37    38    1
    37    38    39    1
    38    39    40    1
    39    33    34    1
    40    17    12   ar
    41    10     1   ar
    42    34    29    1
    43     7     3   ar
    44    40    36    1
    45    23    18   ar
@<TRIPOS>MOLECULE
*****
 40 45 0 0 0
SMALL
GASTEIGER

@<TRIPOS>ATOM
      1 C         141.4992  141.9065  161.9900 C.ar    1  UNL1        0.1472
      2 N         141.4353  141.7159  160.5035 N.ar    1  UNL1       -0.2248
      3 C         140.1783  142.0528  159.7575 C.ar    1  UNL1        0.1260
      4 C         139.8217  141.9700  158.3029 C.ar    1  UNL1        0.1212
      5 N         138.4083  142.4465  158.1444 N.ar    1  UNL1       -0.2264
      6 N         137.8913  142.8236  159.5011 N.ar    1  UNL1       -0.1586
      7 C         138.9853  142.5803  160.4981 C.ar    1  UNL1        0.1762
      8 C         139.0492  142.7709  161.9845 C.ar    1  UNL1        0.2829
      9 O         137.8562  143.2985  162.7250 O.2     1  UNL1       -0.2652
     10 N         140.3062  142.4340  162.7304 N.ar    1  UNL1       -0.2792
     11 C         143.5764  144.0194  162.4604 C.3     1  UNL1        0.0522
     12 C         143.7949  142.6260  162.9712 C.ar    1  UNL1        0.0623
     13 N         145.0518  142.2891  163.7171 N.ar    1  UNL1       -0.2480
     14 C         145.2703  140.8958  164.2279 C.ar    1  UNL1        0.0984
     15 C         144.2317  139.8393  163.9927 C.ar    1  UNL1        0.0208
     16 C         142.9747  140.1763  163.2468 C.ar    1  UNL1        0.0058
     17 C         142.7563  141.5696  162.7360 C.ar    1  UNL1        0.0478
     18 C         137.6456  142.5309  156.8555 C.ar    1  UNL1        0.0859
     19 C         137.8811  143.6783  155.9185 C.ar    1  UNL1        0.0194
     20 C         137.1184  143.7627  154.6296 C.ar    1  UNL1        0.0047
     21 C         136.1202  142.6998  154.2777 C.ar    1  UNL1        0.0372
     22 C         135.8847  141.5524  155.2148 C.ar    1  UNL1        0.1458
     23 C         136.6474  141.4680  156.5037 C.ar    1  UNL1        0.0562
     24 O         134.8866  140.4894  154.8630 O.3     1  UNL1       -0.4236
     25 C         133.7586  140.1796  155.8021 C.3     1  UNL1        0.5087
     26 F         133.6411  138.8124  156.4078 F       1  UNL1       -0.1550
     27 F         132.7483  141.2369  156.1354 F       1  UNL1       -0.1550
     28 C         140.3701  142.6247  164.2170 C.3     1  UNL1        0.1119
     29 C         139.8617  141.5515  165.1333 C.3     1  UNL1        0.0388
     30 C         138.9144  140.5100  164.6157 C.3     1  UNL1        0.0048
     31 C         138.4060  139.4368  165.5320 C.3     1  UNL1        0.0174
     32 C         138.8449  139.4051  166.9661 C.3     1  UNL1        0.0722
     33 N         139.7922  140.4466  167.4837 N.3     1  UNL1       -0.2706
     34 C         140.3006  141.5198  166.5673 C.3     1  UNL1        0.0741
     35 C         140.2311  140.4148  168.9177 C.3     1  UNL1        0.1020
     36 C         141.3861  141.2594  169.3674 C.3     1  UNL1        0.1312
     37 C         142.8393  140.9260  169.2021 C.3     1  UNL1        0.0336
     38 C         143.6422  142.0463  169.7939 C.3     1  UNL1        0.0346
     39 C         142.6853  143.0721  170.3251 C.3     1  UNL1        0.1422
     40 O         141.2910  142.5858  170.0616 O.3     1  UNL1       -0.3548
@<TRIPOS>BOND
     1    11    12    1
     2    12    13   ar
     3    13    14   ar
     4    14    15   ar
     5    15    16   ar
     6    16    17   ar
     7    17     1    1
     8     1     2   ar
     9     2     3   ar
    10     3     4   ar
    11     4     5   ar
    12     5    18    1
    13    18    19   ar
    14    19    20   ar
    15    20    21   ar
    16    21    22   ar
    17    22    24    1
    18    24    25    1
    19    25    26    1
    20    25    27    1
    21    22    23   ar
    22     5     6   ar
    23     6     7   ar
    24     7     8   ar
    25     8     9    2
    26     8    10   ar
    27    10    28    1
    28    29    28    1
    29    29    30    1
    30    30    31    1
    31    31    32    1
    32    32    33    1
    33    33    35    1
    34    36    35    1
    35    36    37    1
    36    37    38    1
    37    38    39    1
    38    39    40    1
    39    33    34    1
    40    17    12   ar
    41    10     1   ar
    42    34    29    1
    43     7     3   ar
    44    40    36    1
    45    23    18   ar
