@<TRIPOS>MOLECULE
*****
 32 36 0 0 0
SMALL
GASTEIGER

@<TRIPOS>ATOM
      1 C         139.2692  139.4330  159.1706 C.3     1  UNL1        0.0991
      2 F         140.7343  143.0594  168.0414 F       1  UNL1       -0.1832
      3 C         140.3578  142.1728  166.8915 C.ar    1  UNL1        0.2221
      4 C         139.7501  140.8262  167.1504 C.ar    1  UNL1        0.0476
      5 C         139.3736  139.9396  166.0006 C.ar    1  UNL1        0.0108
      6 C         139.6049  140.3997  164.5917 C.ar    1  UNL1        0.0198
      7 C         140.2127  141.7463  164.3328 C.ar    1  UNL1        0.0990
      8 N         140.5892  142.6329  165.4826 N.ar    1  UNL1       -0.2167
      9 C         139.1360  139.3155  163.6671 C.3     1  UNL1        0.1157
     10 C         138.6282  138.1500  162.8711 C.3     1  UNL1        0.0489
     11 C         138.6726  138.1892  161.3723 C.3     1  UNL1        0.0751
     12 N         139.2248  139.3938  160.6695 N.3     1  UNL1       -0.2688
     13 C         139.7325  140.5594  161.4655 C.3     1  UNL1        0.0751
     14 C         139.6881  140.5202  162.9643 C.3     1  UNL1        0.0489
     15 O         138.6148  138.1854  164.5045 O.3     1  UNL1       -0.3496
     16 C         138.7617  138.5711  165.9467 C.3     1  UNL1        0.1687
     17 C         140.2404  138.5655  158.4262 C.ar    1  UNL1       -0.0061
     18 C         141.6416  138.4004  158.9354 C.ar    1  UNL1       -0.0016
     19 C         142.6128  137.5329  158.1909 C.ar    1  UNL1        0.0143
     20 C         142.1829  136.8306  156.9372 C.ar    1  UNL1        0.0483
     21 C         140.7817  136.9958  156.4279 C.ar    1  UNL1        0.0143
     22 C         139.8104  137.8632  157.1724 C.ar    1  UNL1       -0.0016
     23 N         143.1541  135.9632  156.1927 N.pl3   1  UNL1       -0.3125
     24 H         143.8396  136.3734  155.6174 H       1  UNL1        0.1522
     25 C         143.0808  134.4708  156.3249 C.ar    1  UNL1        0.0507
     26 C         142.0532  133.6990  155.5516 C.ar    1  UNL1        0.0171
     27 C         141.9799  132.2066  155.6838 C.ar    1  UNL1        0.0332
     28 C         142.9344  131.4861  156.5892 C.ar    1  UNL1        0.1675
     29 F         142.8612  129.9937  156.7214 F       1  UNL1       -0.2018
     30 C         143.9621  132.2580  157.3626 C.ar    1  UNL1        0.1686
     31 F         144.9166  131.5375  158.2680 F       1  UNL1       -0.2018
     32 C         144.0354  133.7504  157.2304 C.ar    1  UNL1        0.0466
@<TRIPOS>BOND
     1     2     3    1
     2     3     4   ar
     3     4     5   ar
     4     5     6   ar
     5     6     7   ar
     6     7     8   ar
     7     6     9    1
     8     9    10    1
     9    10    11    1
    10    11    12    1
    11    12     1    1
    12     1    17    1
    13    17    18   ar
    14    18    19   ar
    15    19    20   ar
    16    20    23    1
    17    23    25    1
    18    25    26   ar
    19    26    27   ar
    20    27    28   ar
    21    28    29    1
    22    28    30   ar
    23    30    31    1
    24    30    32   ar
    25    20    21   ar
    26    21    22   ar
    27    12    13    1
    28    13    14    1
    29     9    15    1
    30    15    16    1
    31     8     3   ar
    32    14     9    1
    33    16     5    1
    34    22    17   ar
    35    32    25   ar
    36    23    24    1
@<TRIPOS>MOLECULE
*****
 32 36 0 0 0
SMALL
GASTEIGER

@<TRIPOS>ATOM
      1 C         138.9146  138.0200  163.7881 C.3     1  UNL1        0.0991
      2 F         143.9152  143.0656  170.3853 F       1  UNL1       -0.1832
      3 C         142.8663  142.2554  169.6829 C.ar    1  UNL1        0.2221
      4 C         141.6148  141.8583  170.4082 C.ar    1  UNL1        0.0476
      5 C         140.5659  141.0482  169.7058 C.ar    1  UNL1        0.0108
      6 C         140.7685  140.6351  168.2781 C.ar    1  UNL1        0.0198
      7 C         142.0199  141.0323  167.5527 C.ar    1  UNL1        0.0990
      8 N         143.0689  141.8424  168.2551 N.ar    1  UNL1       -0.2167
      9 C         139.5679  139.8446  167.8494 C.3     1  UNL1        0.1157
     10 C         138.3109  139.0769  167.5655 C.3     1  UNL1        0.0489
     11 C         138.0931  138.4687  166.2117 C.3     1  UNL1        0.0751
     12 N         139.1324  138.6282  165.1419 N.3     1  UNL1       -0.2688
     13 C         140.3894  139.3959  165.4258 C.3     1  UNL1        0.0751
     14 C         140.6071  140.0040  166.7795 C.3     1  UNL1        0.0489
     15 O         138.6233  139.7690  169.0122 O.3     1  UNL1       -0.3496
     16 C         139.2401  140.5129  170.1596 C.3     1  UNL1        0.1687
     17 C         138.7484  138.9031  162.5871 C.ar    1  UNL1       -0.0061
     18 C         139.3811  138.5210  161.2818 C.ar    1  UNL1       -0.0016
     19 C         139.2149  139.4041  160.0808 C.ar    1  UNL1        0.0143
     20 C         138.4159  140.6693  160.1850 C.ar    1  UNL1        0.0483
     21 C         137.7831  141.0514  161.4902 C.ar    1  UNL1        0.0143
     22 C         137.9493  140.1683  162.6912 C.ar    1  UNL1       -0.0016
     23 N         138.2497  141.5524  158.9840 N.pl3   1  UNL1       -0.3125
     24 H         137.5286  141.3740  158.3378 H       1  UNL1        0.1522
     25 C         139.1821  142.7073  158.7674 C.ar    1  UNL1        0.0507
     26 C         139.2448  143.3795  157.4280 C.ar    1  UNL1        0.0171
     27 C         140.1772  144.5344  157.2114 C.ar    1  UNL1        0.0332
     28 C         141.0468  145.0170  158.3342 C.ar    1  UNL1        0.1675
     29 F         141.9792  146.1719  158.1176 F       1  UNL1       -0.2018
     30 C         140.9841  144.3448  159.6737 C.ar    1  UNL1        0.1686
     31 F         141.8537  144.8274  160.7965 F       1  UNL1       -0.2018
     32 C         140.0517  143.1899  159.8903 C.ar    1  UNL1        0.0466
@<TRIPOS>BOND
     1     2     3    1
     2     3     4   ar
     3     4     5   ar
     4     5     6   ar
     5     6     7   ar
     6     7     8   ar
     7     6     9    1
     8     9    10    1
     9    10    11    1
    10    11    12    1
    11    12     1    1
    12     1    17    1
    13    17    18   ar
    14    18    19   ar
    15    19    20   ar
    16    20    23    1
    17    23    25    1
    18    25    26   ar
    19    26    27   ar
    20    27    28   ar
    21    28    29    1
    22    28    30   ar
    23    30    31    1
    24    30    32   ar
    25    20    21   ar
    26    21    22   ar
    27    12    13    1
    28    13    14    1
    29     9    15    1
    30    15    16    1
    31     8     3   ar
    32    14     9    1
    33    16     5    1
    34    22    17   ar
    35    32    25   ar
    36    23    24    1
@<TRIPOS>MOLECULE
*****
 32 36 0 0 0
SMALL
GASTEIGER

@<TRIPOS>ATOM
      1 C         138.6606  137.5086  164.1220 C.3     1  UNL1        0.0991
      2 F         144.2149  142.9464  169.9159 F       1  UNL1       -0.1832
      3 C         143.0854  142.1440  169.3411 C.ar    1  UNL1        0.2221
      4 C         141.8193  141.9629  170.1247 C.ar    1  UNL1        0.0476
      5 C         140.6898  141.1605  169.5499 C.ar    1  UNL1        0.0108
      6 C         140.8264  140.5394  168.1914 C.ar    1  UNL1        0.0198
      7 C         142.0925  140.7205  167.4077 C.ar    1  UNL1        0.0990
      8 N         143.2220  141.5229  167.9825 N.ar    1  UNL1       -0.2167
      9 C         139.5531  139.8073  167.8862 C.3     1  UNL1        0.1157
     10 C         138.2286  139.1228  167.7218 C.3     1  UNL1        0.0489
     11 C         137.9312  138.3565  166.4670 C.3     1  UNL1        0.0751
     12 N         138.9582  138.2749  165.3768 N.3     1  UNL1       -0.2688
     13 C         140.2826  138.9595  165.5413 C.3     1  UNL1        0.0751
     14 C         140.5801  139.7257  166.7960 C.3     1  UNL1        0.0489
     15 O         138.6296  139.9761  169.0562 O.3     1  UNL1       -0.3496
     16 C         139.3321  140.8124  170.0844 C.3     1  UNL1        0.1687
     17 C         139.3284  137.8900  162.8342 C.ar    1  UNL1       -0.0061
     18 C         140.7773  137.5684  162.6167 C.ar    1  UNL1       -0.0016
     19 C         141.4451  137.9498  161.3288 C.ar    1  UNL1        0.0143
     20 C         140.6640  138.6528  160.2584 C.ar    1  UNL1        0.0483
     21 C         139.2151  138.9743  160.4759 C.ar    1  UNL1        0.0143
     22 C         138.5473  138.5930  161.7637 C.ar    1  UNL1       -0.0016
     23 N         141.3318  139.0341  158.9706 N.pl3   1  UNL1       -0.3125
     24 H         141.6969  139.9411  158.8552 H       1  UNL1        0.1522
     25 C         141.4433  138.0336  157.8586 C.ar    1  UNL1        0.0507
     26 C         140.2628  137.7600  156.9747 C.ar    1  UNL1        0.0171
     27 C         140.3743  136.7595  155.8627 C.ar    1  UNL1        0.0332
     28 C         141.6664  136.0326  155.6346 C.ar    1  UNL1        0.1675
     29 F         141.7780  135.0321  154.5226 F       1  UNL1       -0.2018
     30 C         142.8471  136.3062  156.5186 C.ar    1  UNL1        0.1686
     31 F         144.1392  135.5793  156.2905 F       1  UNL1       -0.2018
     32 C         142.7355  137.3067  157.6306 C.ar    1  UNL1        0.0466
@<TRIPOS>BOND
     1     2     3    1
     2     3     4   ar
     3     4     5   ar
     4     5     6   ar
     5     6     7   ar
     6     7     8   ar
     7     6     9    1
     8     9    10    1
     9    10    11    1
    10    11    12    1
    11    12     1    1
    12     1    17    1
    13    17    18   ar
    14    18    19   ar
    15    19    20   ar
    16    20    23    1
    17    23    25    1
    18    25    26   ar
    19    26    27   ar
    20    27    28   ar
    21    28    29    1
    22    28    30   ar
    23    30    31    1
    24    30    32   ar
    25    20    21   ar
    26    21    22   ar
    27    12    13    1
    28    13    14    1
    29     9    15    1
    30    15    16    1
    31     8     3   ar
    32    14     9    1
    33    16     5    1
    34    22    17   ar
    35    32    25   ar
    36    23    24    1
@<TRIPOS>MOLECULE
*****
 32 36 0 0 0
SMALL
GASTEIGER

@<TRIPOS>ATOM
      1 C         140.1931  142.1186  156.9387 C.3     1  UNL1        0.0991
      2 F         138.5338  145.4684  165.8837 F       1  UNL1       -0.1832
      3 C         138.5569  144.6286  164.6410 C.ar    1  UNL1        0.2221
      4 C         137.8388  143.3121  164.6122 C.ar    1  UNL1        0.0476
      5 C         137.8618  142.4723  163.3695 C.ar    1  UNL1        0.0108
      6 C         138.6030  142.9491  162.1557 C.ar    1  UNL1        0.0198
      7 C         139.3211  144.2657  162.1846 C.ar    1  UNL1        0.0990
      8 N         139.2981  145.1055  163.4272 N.ar    1  UNL1       -0.2167
      9 C         138.4503  141.9123  161.0824 C.3     1  UNL1        0.1157
     10 C         138.2119  140.7937  160.1120 C.3     1  UNL1        0.0489
     11 C         138.7928  140.8625  158.7308 C.3     1  UNL1        0.0751
     12 N         139.6121  142.0498  158.3200 N.3     1  UNL1       -0.2688
     13 C         139.8506  143.1685  159.2904 C.3     1  UNL1        0.0751
     14 C         139.2697  143.0997  160.6716 C.3     1  UNL1        0.0489
     15 O         137.6148  140.7948  161.6328 O.3     1  UNL1       -0.3496
     16 C         137.2510  141.1408  163.0464 C.3     1  UNL1        0.1687
     17 C         140.0898  143.3865  156.1439 C.ar    1  UNL1       -0.0061
     18 C         141.3000  144.2515  155.9512 C.ar    1  UNL1       -0.0016
     19 C         141.1967  145.5195  155.1563 C.ar    1  UNL1        0.0143
     20 C         139.8833  145.9223  154.5542 C.ar    1  UNL1        0.0483
     21 C         138.6731  145.0572  154.7469 C.ar    1  UNL1        0.0143
     22 C         138.7764  143.7893  155.5417 C.ar    1  UNL1       -0.0016
     23 N         139.7801  147.1902  153.7594 N.pl3   1  UNL1       -0.3125
     24 H         139.8883  147.1681  152.7811 H       1  UNL1        0.1522
     25 C         139.5120  148.4918  154.4551 C.ar    1  UNL1        0.0507
     26 C         140.0032  149.7768  153.8573 C.ar    1  UNL1        0.0171
     27 C         139.7352  151.0784  154.5530 C.ar    1  UNL1        0.0332
     28 C         138.9759  151.0949  155.8465 C.ar    1  UNL1        0.1675
     29 F         138.7078  152.3965  156.5421 F       1  UNL1       -0.2018
     30 C         138.4846  149.8099  156.4443 C.ar    1  UNL1        0.1686
     31 F         137.7253  149.8265  157.7378 F       1  UNL1       -0.2018
     32 C         138.7527  148.5083  155.7486 C.ar    1  UNL1        0.0466
@<TRIPOS>BOND
     1     2     3    1
     2     3     4   ar
     3     4     5   ar
     4     5     6   ar
     5     6     7   ar
     6     7     8   ar
     7     6     9    1
     8     9    10    1
     9    10    11    1
    10    11    12    1
    11    12     1    1
    12     1    17    1
    13    17    18   ar
    14    18    19   ar
    15    19    20   ar
    16    20    23    1
    17    23    25    1
    18    25    26   ar
    19    26    27   ar
    20    27    28   ar
    21    28    29    1
    22    28    30   ar
    23    30    31    1
    24    30    32   ar
    25    20    21   ar
    26    21    22   ar
    27    12    13    1
    28    13    14    1
    29     9    15    1
    30    15    16    1
    31     8     3   ar
    32    14     9    1
    33    16     5    1
    34    22    17   ar
    35    32    25   ar
    36    23    24    1
@<TRIPOS>MOLECULE
*****
 32 36 0 0 0
SMALL
GASTEIGER

@<TRIPOS>ATOM
      1 C         141.3829  138.8847  157.0411 C.3     1  UNL1        0.0991
      2 F         145.4593  130.1123  157.6864 F       1  UNL1       -0.1832
      3 C         144.6146  131.2817  157.2753 C.ar    1  UNL1        0.2221
      4 C         143.6308  131.1383  156.1522 C.ar    1  UNL1        0.0476
      5 C         142.7861  132.3077  155.7411 C.ar    1  UNL1        0.0108
      6 C         142.9253  133.6206  156.4531 C.ar    1  UNL1        0.0198
      7 C         143.9092  133.7640  157.5762 C.ar    1  UNL1        0.0990
      8 N         144.7539  132.5946  157.9873 N.ar    1  UNL1       -0.2167
      9 C         141.9643  134.5897  155.8307 C.3     1  UNL1        0.1157
     10 C         140.9606  135.4420  155.1124 C.3     1  UNL1        0.0489
     11 C         140.7668  136.8737  155.5158 C.3     1  UNL1        0.0751
     12 N         141.5767  137.4530  156.6376 N.3     1  UNL1       -0.2688
     13 C         142.5804  136.6006  157.3560 C.3     1  UNL1        0.0751
     14 C         142.7742  135.1690  156.9526 C.3     1  UNL1        0.0489
     15 O         141.2311  133.8757  154.7341 O.3     1  UNL1       -0.3496
     16 C         141.7390  132.4653  154.6786 C.3     1  UNL1        0.1687
     17 C         140.3754  139.2371  158.0950 C.ar    1  UNL1       -0.0061
     18 C         139.1576  140.0340  157.7319 C.ar    1  UNL1       -0.0016
     19 C         138.1501  140.3864  158.7859 C.ar    1  UNL1        0.0143
     20 C         138.3605  139.9419  160.2029 C.ar    1  UNL1        0.0483
     21 C         139.5783  139.1450  160.5661 C.ar    1  UNL1        0.0143
     22 C         140.5858  138.7926  159.5122 C.ar    1  UNL1       -0.0016
     23 N         137.3530  140.2943  161.2568 N.pl3   1  UNL1       -0.3125
     24 H         136.4641  139.8714  161.2491 H       1  UNL1        0.1522
     25 C         137.7000  141.2912  162.3226 C.ar    1  UNL1        0.0507
     26 C         137.9159  140.8346  163.7350 C.ar    1  UNL1        0.0171
     27 C         138.2628  141.8315  164.8008 C.ar    1  UNL1        0.0332
     28 C         138.3939  143.2850  164.4541 C.ar    1  UNL1        0.1675
     29 F         138.7409  144.2819  165.5199 F       1  UNL1       -0.2018
     30 C         138.1780  143.7416  163.0417 C.ar    1  UNL1        0.1686
     31 F         138.3091  145.1951  162.6951 F       1  UNL1       -0.2018
     32 C         137.8311  142.7448  161.9759 C.ar    1  UNL1        0.0466
@<TRIPOS>BOND
     1     2     3    1
     2     3     4   ar
     3     4     5   ar
     4     5     6   ar
     5     6     7   ar
     6     7     8   ar
     7     6     9    1
     8     9    10    1
     9    10    11    1
    10    11    12    1
    11    12     1    1
    12     1    17    1
    13    17    18   ar
    14    18    19   ar
    15    19    20   ar
    16    20    23    1
    17    23    25    1
    18    25    26   ar
    19    26    27   ar
    20    27    28   ar
    21    28    29    1
    22    28    30   ar
    23    30    31    1
    24    30    32   ar
    25    20    21   ar
    26    21    22   ar
    27    12    13    1
    28    13    14    1
    29     9    15    1
    30    15    16    1
    31     8     3   ar
    32    14     9    1
    33    16     5    1
    34    22    17   ar
    35    32    25   ar
    36    23    24    1
@<TRIPOS>MOLECULE
*****
 32 36 0 0 0
SMALL
GASTEIGER

@<TRIPOS>ATOM
      1 C         141.9345  138.3995  158.1614 C.3     1  UNL1        0.0991
      2 F         145.3573  129.7982  155.2823 F       1  UNL1       -0.1832
      3 C         144.5665  131.0671  155.4024 C.ar    1  UNL1        0.2221
      4 C         143.4558  131.3529  154.4357 C.ar    1  UNL1        0.0476
      5 C         142.6650  132.6218  154.5557 C.ar    1  UNL1        0.0108
      6 C         142.9849  133.6049  155.6426 C.ar    1  UNL1        0.0198
      7 C         144.0956  133.3191  156.6093 C.ar    1  UNL1        0.0990
      8 N         144.8864  132.0502  156.4893 N.ar    1  UNL1       -0.2167
      9 C         142.0396  134.7625  155.5136 C.3     1  UNL1        0.1157
     10 C         141.0322  135.8449  155.2614 C.3     1  UNL1        0.0489
     11 C         140.9972  137.0572  156.1440 C.3     1  UNL1        0.0751
     12 N         141.9696  137.1871  157.2787 N.3     1  UNL1       -0.2688
     13 C         142.9769  136.1047  157.5309 C.3     1  UNL1        0.0751
     14 C         143.0119  134.8924  156.6483 C.3     1  UNL1        0.0489
     15 O         141.1355  134.4948  154.3470 O.3     1  UNL1       -0.3496
     16 C         141.5220  133.1718  153.7550 C.3     1  UNL1        0.1687
     17 C         141.1952  138.3565  159.4658 C.ar    1  UNL1       -0.0061
     18 C         139.7223  138.6379  159.5027 C.ar    1  UNL1       -0.0016
     19 C         138.9830  138.5949  160.8072 C.ar    1  UNL1        0.0143
     20 C         139.7166  138.2705  162.0747 C.ar    1  UNL1        0.0483
     21 C         141.1895  137.9891  162.0377 C.ar    1  UNL1        0.0143
     22 C         141.9288  138.0321  160.7333 C.ar    1  UNL1       -0.0016
     23 N         138.9773  138.2274  163.3791 N.pl3   1  UNL1       -0.3125
     24 H         138.3066  137.5254  163.5418 H       1  UNL1        0.1522
     25 C         139.2599  139.2541  164.4355 C.ar    1  UNL1        0.0507
     26 C         139.7762  140.6077  164.0469 C.ar    1  UNL1        0.0171
     27 C         140.0588  141.6343  165.1034 C.ar    1  UNL1        0.0332
     28 C         139.8250  141.3074  166.5485 C.ar    1  UNL1        0.1675
     29 F         140.1076  142.3340  167.6050 F       1  UNL1       -0.2018
     30 C         139.3086  139.9537  166.9372 C.ar    1  UNL1        0.1686
     31 F         139.0749  139.6267  168.3823 F       1  UNL1       -0.2018
     32 C         139.0261  138.9271  165.8807 C.ar    1  UNL1        0.0466
@<TRIPOS>BOND
     1     2     3    1
     2     3     4   ar
     3     4     5   ar
     4     5     6   ar
     5     6     7   ar
     6     7     8   ar
     7     6     9    1
     8     9    10    1
     9    10    11    1
    10    11    12    1
    11    12     1    1
    12     1    17    1
    13    17    18   ar
    14    18    19   ar
    15    19    20   ar
    16    20    23    1
    17    23    25    1
    18    25    26   ar
    19    26    27   ar
    20    27    28   ar
    21    28    29    1
    22    28    30   ar
    23    30    31    1
    24    30    32   ar
    25    20    21   ar
    26    21    22   ar
    27    12    13    1
    28    13    14    1
    29     9    15    1
    30    15    16    1
    31     8     3   ar
    32    14     9    1
    33    16     5    1
    34    22    17   ar
    35    32    25   ar
    36    23    24    1
@<TRIPOS>MOLECULE
*****
 32 36 0 0 0
SMALL
GASTEIGER

@<TRIPOS>ATOM
      1 C         144.2615  139.2013  162.9770 C.3     1  UNL1        0.0991
      2 F         140.6233  141.3827  171.6944 F       1  UNL1       -0.1832
      3 C         140.7862  140.9328  170.2728 C.ar    1  UNL1        0.2221
      4 C         139.6034  140.4139  169.5101 C.ar    1  UNL1        0.0476
      5 C         139.7663  139.9641  168.0885 C.ar    1  UNL1        0.0108
      6 C         141.1120  140.0332  167.4295 C.ar    1  UNL1        0.0198
      7 C         142.2948  140.5522  168.1921 C.ar    1  UNL1        0.0990
      8 N         142.1319  141.0020  169.6138 N.ar    1  UNL1       -0.2167
      9 C         140.9678  139.5226  166.0264 C.3     1  UNL1        0.1157
     10 C         140.6716  138.9899  164.6558 C.3     1  UNL1        0.0489
     11 C         141.7695  138.8828  163.6394 C.3     1  UNL1        0.0751
     12 N         143.1636  139.3085  163.9935 N.3     1  UNL1       -0.2688
     13 C         143.4598  139.8412  165.3641 C.3     1  UNL1        0.0751
     14 C         142.3619  139.9482  166.3805 C.3     1  UNL1        0.0489
     15 O         139.5330  139.1379  165.8182 O.3     1  UNL1       -0.3496
     16 C         138.7903  139.4108  167.0927 C.3     1  UNL1        0.1687
     17 C         144.2242  140.0498  161.7407 C.ar    1  UNL1       -0.0061
     18 C         144.5746  141.5062  161.8197 C.ar    1  UNL1       -0.0016
     19 C         144.5374  142.3547  160.5832 C.ar    1  UNL1        0.0143
     20 C         144.1498  141.7468  159.2678 C.ar    1  UNL1        0.0483
     21 C         143.7994  140.2905  159.1888 C.ar    1  UNL1        0.0143
     22 C         143.8366  139.4420  160.4252 C.ar    1  UNL1       -0.0016
     23 N         144.1126  142.5953  158.0315 N.pl3   1  UNL1       -0.3125
     24 H         143.4904  143.3563  157.9752 H       1  UNL1        0.1522
     25 C         145.0233  142.2845  156.8808 C.ar    1  UNL1        0.0507
     26 C         144.4466  141.8992  155.5508 C.ar    1  UNL1        0.0171
     27 C         145.3573  141.5884  154.4002 C.ar    1  UNL1        0.0332
     28 C         146.8447  141.6629  154.5795 C.ar    1  UNL1        0.1675
     29 F         147.7554  141.3521  153.4289 F       1  UNL1       -0.2018
     30 C         147.4214  142.0482  155.9096 C.ar    1  UNL1        0.1686
     31 F         148.9087  142.1227  156.0889 F       1  UNL1       -0.2018
     32 C         146.5107  142.3590  157.0602 C.ar    1  UNL1        0.0466
@<TRIPOS>BOND
     1     2     3    1
     2     3     4   ar
     3     4     5   ar
     4     5     6   ar
     5     6     7   ar
     6     7     8   ar
     7     6     9    1
     8     9    10    1
     9    10    11    1
    10    11    12    1
    11    12     1    1
    12     1    17    1
    13    17    18   ar
    14    18    19   ar
    15    19    20   ar
    16    20    23    1
    17    23    25    1
    18    25    26   ar
    19    26    27   ar
    20    27    28   ar
    21    28    29    1
    22    28    30   ar
    23    30    31    1
    24    30    32   ar
    25    20    21   ar
    26    21    22   ar
    27    12    13    1
    28    13    14    1
    29     9    15    1
    30    15    16    1
    31     8     3   ar
    32    14     9    1
    33    16     5    1
    34    22    17   ar
    35    32    25   ar
    36    23    24    1
@<TRIPOS>MOLECULE
*****
 32 36 0 0 0
SMALL
GASTEIGER

@<TRIPOS>ATOM
      1 C         141.4883  138.7023  158.0926 C.3     1  UNL1        0.0991
      2 F         145.3642  130.1865  155.5535 F       1  UNL1       -0.1832
      3 C         144.5175  131.4232  155.6141 C.ar    1  UNL1        0.2221
      4 C         143.4300  131.6378  154.6036 C.ar    1  UNL1        0.0476
      5 C         142.5833  132.8745  154.6642 C.ar    1  UNL1        0.0108
      6 C         142.8241  133.8966  155.7354 C.ar    1  UNL1        0.0198
      7 C         143.9117  133.6820  156.7459 C.ar    1  UNL1        0.0990
      8 N         144.7584  132.4453  156.6853 N.ar    1  UNL1       -0.2167
      9 C         141.8364  135.0094  155.5448 C.3     1  UNL1        0.1157
     10 C         140.7942  136.0415  155.2310 C.3     1  UNL1        0.0489
     11 C         140.6782  137.2724  156.0803 C.3     1  UNL1        0.0751
     12 N         141.6044  137.4713  157.2433 N.3     1  UNL1       -0.2688
     13 C         142.6466  136.4392  157.5571 C.3     1  UNL1        0.0751
     14 C         142.7626  135.2083  156.7078 C.3     1  UNL1        0.0489
     15 O         140.9852  134.6751  154.3558 O.3     1  UNL1       -0.3496
     16 C         141.4468  133.3556  153.8116 C.3     1  UNL1        0.1687
     17 C         142.2604  138.8046  159.3745 C.ar    1  UNL1       -0.0061
     18 C         143.5340  139.5956  159.4219 C.ar    1  UNL1       -0.0016
     19 C         144.3061  139.6979  160.7039 C.ar    1  UNL1        0.0143
     20 C         143.8046  139.0092  161.9384 C.ar    1  UNL1        0.0483
     21 C         142.5310  138.2182  161.8910 C.ar    1  UNL1        0.0143
     22 C         141.7589  138.1159  160.6091 C.ar    1  UNL1       -0.0016
     23 N         144.5767  139.1115  163.2203 N.pl3   1  UNL1       -0.3125
     24 H         145.4197  138.6147  163.3282 H       1  UNL1        0.1522
     25 C         144.0643  139.9709  164.3379 C.ar    1  UNL1        0.0507
     26 C         143.2122  139.3697  165.4161 C.ar    1  UNL1        0.0171
     27 C         142.6999  140.2290  166.5337 C.ar    1  UNL1        0.0332
     28 C         143.0396  141.6895  166.5732 C.ar    1  UNL1        0.1675
     29 F         142.5272  142.5488  167.6908 F       1  UNL1       -0.2018
     30 C         143.8917  142.2907  165.4949 C.ar    1  UNL1        0.1686
     31 F         144.2314  143.7512  165.5343 F       1  UNL1       -0.2018
     32 C         144.4041  141.4314  164.3773 C.ar    1  UNL1        0.0466
@<TRIPOS>BOND
     1     2     3    1
     2     3     4   ar
     3     4     5   ar
     4     5     6   ar
     5     6     7   ar
     6     7     8   ar
     7     6     9    1
     8     9    10    1
     9    10    11    1
    10    11    12    1
    11    12     1    1
    12     1    17    1
    13    17    18   ar
    14    18    19   ar
    15    19    20   ar
    16    20    23    1
    17    23    25    1
    18    25    26   ar
    19    26    27   ar
    20    27    28   ar
    21    28    29    1
    22    28    30   ar
    23    30    31    1
    24    30    32   ar
    25    20    21   ar
    26    21    22   ar
    27    12    13    1
    28    13    14    1
    29     9    15    1
    30    15    16    1
    31     8     3   ar
    32    14     9    1
    33    16     5    1
    34    22    17   ar
    35    32    25   ar
    36    23    24    1
@<TRIPOS>MOLECULE
*****
 32 36 0 0 0
SMALL
GASTEIGER

@<TRIPOS>ATOM
      1 C         144.3057  140.2890  162.5450 C.3     1  UNL1        0.0991
      2 F         141.2671  135.2682  154.8284 F       1  UNL1       -0.1832
      3 C         141.3674  136.2402  155.9665 C.ar    1  UNL1        0.2221
      4 C         140.2551  137.2134  156.2218 C.ar    1  UNL1        0.0476
      5 C         140.3554  138.1854  157.3599 C.ar    1  UNL1        0.0108
      6 C         141.5681  138.1840  158.2426 C.ar    1  UNL1        0.0198
      7 C         142.6806  137.2107  157.9873 C.ar    1  UNL1        0.0990
      8 N         142.5802  136.2387  156.8492 N.ar    1  UNL1       -0.2167
      9 C         141.3872  139.2518  159.2806 C.3     1  UNL1        0.1157
     10 C         141.0678  140.3500  160.2510 C.3     1  UNL1        0.0489
     11 C         142.0406  140.6958  161.3391 C.3     1  UNL1        0.0751
     12 N         143.3329  139.9432  161.4568 N.3     1  UNL1       -0.2688
     13 C         143.6523  138.8450  160.4864 C.3     1  UNL1        0.0751
     14 C         142.6794  138.4992  159.3983 C.3     1  UNL1        0.0489
     15 O         140.0626  139.9130  159.0393 O.3     1  UNL1       -0.3496
     16 C         139.4249  139.2540  157.8522 C.3     1  UNL1        0.1687
     17 C         143.9319  140.0734  163.9815 C.ar    1  UNL1       -0.0061
     18 C         143.2738  141.1747  164.7587 C.ar    1  UNL1       -0.0016
     19 C         142.9000  140.9590  166.1953 C.ar    1  UNL1        0.0143
     20 C         143.1843  139.6421  166.8547 C.ar    1  UNL1        0.0483
     21 C         143.8425  138.5408  166.0776 C.ar    1  UNL1        0.0143
     22 C         144.2163  138.7564  164.6410 C.ar    1  UNL1       -0.0016
     23 N         142.8106  139.4265  168.2913 N.pl3   1  UNL1       -0.3125
     24 H         143.1513  138.6402  168.7759 H       1  UNL1        0.1522
     25 C         141.9176  140.4088  168.9895 C.ar    1  UNL1        0.0507
     26 C         142.4674  141.7259  169.4508 C.ar    1  UNL1        0.0171
     27 C         141.5744  142.7083  170.1490 C.ar    1  UNL1        0.0332
     28 C         140.1316  142.3736  170.3859 C.ar    1  UNL1        0.1675
     29 F         139.2385  143.3559  171.0842 F       1  UNL1       -0.2018
     30 C         139.5817  141.0564  169.9246 C.ar    1  UNL1        0.1686
     31 F         138.1388  140.7216  170.1615 F       1  UNL1       -0.2018
     32 C         140.4747  140.0740  169.2264 C.ar    1  UNL1        0.0466
@<TRIPOS>BOND
     1     2     3    1
     2     3     4   ar
     3     4     5   ar
     4     5     6   ar
     5     6     7   ar
     6     7     8   ar
     7     6     9    1
     8     9    10    1
     9    10    11    1
    10    11    12    1
    11    12     1    1
    12     1    17    1
    13    17    18   ar
    14    18    19   ar
    15    19    20   ar
    16    20    23    1
    17    23    25    1
    18    25    26   ar
    19    26    27   ar
    20    27    28   ar
    21    28    29    1
    22    28    30   ar
    23    30    31    1
    24    30    32   ar
    25    20    21   ar
    26    21    22   ar
    27    12    13    1
    28    13    14    1
    29     9    15    1
    30    15    16    1
    31     8     3   ar
    32    14     9    1
    33    16     5    1
    34    22    17   ar
    35    32    25   ar
    36    23    24    1
