@<TRIPOS>MOLECULE
*****
 37 41 0 0 0
SMALL
GASTEIGER

@<TRIPOS>ATOM
      1 C         142.2025  140.8158  168.1736 C.3     1  UNL1        0.0768
      2 N         142.9255  140.8235  166.8594 N.3     1  UNL1       -0.2724
      3 C         143.3414  142.0415  166.0889 C.3     1  UNL1        0.0721
      4 C         144.0326  141.5852  164.8383 C.3     1  UNL1        0.0187
      5 C         144.0439  140.0852  164.8358 C.3     1  UNL1        0.0178
      6 C         143.3597  139.6145  166.0849 C.3     1  UNL1        0.0721
      7 C         144.6355  139.2098  163.7711 C.3     1  UNL1        0.0077
      8 C         144.0016  139.1480  162.4131 C.3     1  UNL1        0.0459
      9 C         142.5263  138.9091  162.2842 C.ar    1  UNL1        0.0603
     10 C         141.8716  137.8161  163.0757 C.ar    1  UNL1        0.0145
     11 C         140.3963  137.5772  162.9469 C.ar    1  UNL1       -0.0003
     12 C         139.5758  138.4314  162.0265 C.ar    1  UNL1        0.0092
     13 C         140.2305  139.5245  161.2350 C.ar    1  UNL1        0.1240
     14 N         141.7058  139.7634  161.3639 N.ar    1  UNL1       -0.2356
     15 N         139.4101  140.3787  160.3146 N.pl3   1  UNL1       -0.3184
     16 C         137.9349  140.1399  160.1858 C.3     1  UNL1        0.0885
     17 C         137.2801  139.0468  160.9772 C.3     1  UNL1        0.0260
     18 C         138.1006  138.1926  161.8976 C.3     1  UNL1        0.0309
     19 H         139.8398  141.0962  159.7951 H       1  UNL1        0.1482
     20 C         140.7533  141.1981  168.2345 C.3     1  UNL1        0.0438
     21 C         138.7830  141.3116  164.7913 C.ar    1  UNL1        0.0191
     22 C         137.9801  140.0479  164.8824 C.ar    1  UNL1        0.0015
     23 C         138.1015  139.1676  166.0908 C.ar    1  UNL1       -0.0003
     24 C         139.0259  139.5510  167.2082 C.ar    1  UNL1       -0.0042
     25 C         139.8289  140.8147  167.1171 C.ar    1  UNL1       -0.0207
     26 C         139.7074  141.6950  165.9087 C.ar    1  UNL1       -0.0027
     27 C         139.9865  144.5223  160.7758 C.3     1  UNL1        0.0515
     28 C         139.2148  143.6677  161.7371 C.ar    1  UNL1        0.0535
     29 C         139.7877  142.9053  162.8950 C.ar    1  UNL1        0.0349
     30 C         138.6616  142.1919  163.5829 C.ar    1  UNL1        0.1018
     31 N         137.3929  142.5133  162.8501 N.ar    1  UNL1       -0.1730
     32 N         137.7348  143.4254  161.7094 N.ar    1  UNL1       -0.2798
     33 H         137.0993  143.7994  161.0570 H       1  UNL1        0.1886
     34 C         140.2285  141.9638  169.4128 C.3     1  UNL1        0.0474
     35 C         140.0985  141.2908  170.7470 C.2     1  UNL1        0.0507
     36 O         139.5885  139.8825  170.8302 O.co2   1  UNL1       -0.5492
     37 O         140.4786  142.0260  171.9980 O.co2   1  UNL1       -0.5492
@<TRIPOS>UNITY_ATOM_ATTR
36 1
charge -1
@<TRIPOS>BOND
     1    27    28    1
     2    28    29   ar
     3    29    30   ar
     4    30    21    1
     5    21    22   ar
     6    22    23   ar
     7    23    24   ar
     8    24    25   ar
     9    25    20    1
    10    20    34    1
    11    34    35    1
    12    35    36   ar
    13    35    37   ar
    14    20     1    1
    15     1     2    1
    16     2     3    1
    17     3     4    1
    18     4     5    1
    19     5     7    1
    20     7     8    1
    21     8     9    1
    22     9    10   ar
    23    10    11   ar
    24    11    12   ar
    25    12    13   ar
    26    13    14   ar
    27    13    15    1
    28    15    16    1
    29    16    17    1
    30    17    18    1
    31     5     6    1
    32    25    26   ar
    33    30    31   ar
    34    31    32   ar
    35    32    28   ar
    36    26    21   ar
    37     6     2    1
    38    14     9   ar
    39    18    12    1
    40    15    19    1
    41    32    33    1
@<TRIPOS>MOLECULE
*****
 37 41 0 0 0
SMALL
GASTEIGER

@<TRIPOS>ATOM
      1 C         139.6665  144.3755  163.7985 C.3     1  UNL1        0.0768
      2 N         141.1154  144.4089  163.4117 N.3     1  UNL1       -0.2724
      3 C         142.1372  145.3903  163.9046 C.3     1  UNL1        0.0721
      4 C         143.4501  145.0548  163.2615 C.3     1  UNL1        0.0187
      5 C         143.2398  143.8661  162.3711 C.3     1  UNL1        0.0178
      6 C         141.7968  143.4669  162.4639 C.3     1  UNL1        0.0721
      7 C         144.2883  143.1944  161.5348 C.3     1  UNL1        0.0077
      8 C         145.0216  141.9998  162.0686 C.3     1  UNL1        0.0459
      9 C         144.2817  140.9503  162.8440 C.ar    1  UNL1        0.0603
     10 C         144.6692  140.6532  164.2624 C.ar    1  UNL1        0.0145
     11 C         143.9293  139.6039  165.0378 C.ar    1  UNL1       -0.0003
     12 C         142.8019  138.8516  164.3950 C.ar    1  UNL1        0.0092
     13 C         142.4145  139.1487  162.9767 C.ar    1  UNL1        0.1240
     14 N         143.1544  140.1981  162.2012 N.ar    1  UNL1       -0.2356
     15 N         141.2872  138.3964  162.3339 N.pl3   1  UNL1       -0.3184
     16 C         140.5473  137.3471  163.1094 C.3     1  UNL1        0.0885
     17 C         140.9348  137.0500  164.5277 C.3     1  UNL1        0.0260
     18 C         142.0621  137.8022  165.1705 C.3     1  UNL1        0.0309
     19 H         141.0329  138.5915  161.4030 H       1  UNL1        0.1482
     20 C         138.8679  143.1203  163.6071 C.3     1  UNL1        0.0438
     21 C         140.2654  140.8653  166.5588 C.ar    1  UNL1        0.0191
     22 C         139.3181  139.7037  166.5011 C.ar    1  UNL1        0.0015
     23 C         138.2208  139.6810  165.4788 C.ar    1  UNL1       -0.0003
     24 C         138.0707  140.8198  164.5141 C.ar    1  UNL1       -0.0042
     25 C         139.0180  141.9814  164.5719 C.ar    1  UNL1       -0.0207
     26 C         140.1154  142.0042  165.5942 C.ar    1  UNL1       -0.0027
     27 C         144.0517  142.5617  169.8249 C.3     1  UNL1        0.0515
     28 C         143.1032  141.6679  169.0824 C.ar    1  UNL1        0.0535
     29 C         142.0915  142.1065  168.0656 C.ar    1  UNL1        0.0349
     30 C         141.3628  140.8881  167.5812 C.ar    1  UNL1        0.1018
     31 N         141.9243  139.6965  168.2987 N.ar    1  UNL1       -0.1730
     32 N         142.9999  140.1784  169.2265 N.ar    1  UNL1       -0.2798
     33 H         143.5427  139.6159  169.8249 H       1  UNL1        0.1886
     34 C         137.9192  143.0039  162.4511 C.3     1  UNL1        0.0474
     35 C         138.4420  142.6916  161.0803 C.2     1  UNL1        0.0507
     36 O         139.1155  143.7614  160.2728 O.co2   1  UNL1       -0.5492
     37 O         138.2914  141.3096  160.5171 O.co2   1  UNL1       -0.5492
@<TRIPOS>UNITY_ATOM_ATTR
36 1
charge -1
@<TRIPOS>BOND
     1    27    28    1
     2    28    29   ar
     3    29    30   ar
     4    30    21    1
     5    21    22   ar
     6    22    23   ar
     7    23    24   ar
     8    24    25   ar
     9    25    20    1
    10    20    34    1
    11    34    35    1
    12    35    36   ar
    13    35    37   ar
    14    20     1    1
    15     1     2    1
    16     2     3    1
    17     3     4    1
    18     4     5    1
    19     5     7    1
    20     7     8    1
    21     8     9    1
    22     9    10   ar
    23    10    11   ar
    24    11    12   ar
    25    12    13   ar
    26    13    14   ar
    27    13    15    1
    28    15    16    1
    29    16    17    1
    30    17    18    1
    31     5     6    1
    32    25    26   ar
    33    30    31   ar
    34    31    32   ar
    35    32    28   ar
    36    26    21   ar
    37     6     2    1
    38    14     9   ar
    39    18    12    1
    40    15    19    1
    41    32    33    1
@<TRIPOS>MOLECULE
*****
 37 41 0 0 0
SMALL
GASTEIGER

@<TRIPOS>ATOM
      1 C         141.6288  137.5487  163.6640 C.3     1  UNL1        0.0768
      2 N         142.6730  138.5343  163.2302 N.3     1  UNL1       -0.2724
      3 C         142.9456  138.9666  161.8199 C.3     1  UNL1        0.0721
      4 C         144.0690  139.9601  161.8486 C.3     1  UNL1        0.0187
      5 C         144.4907  140.1420  163.2765 C.3     1  UNL1        0.0178
      6 C         143.6279  139.2608  164.1304 C.3     1  UNL1        0.0721
      7 C         145.5833  141.0462  163.7649 C.3     1  UNL1        0.0077
      8 C         145.2425  142.3783  164.3643 C.3     1  UNL1        0.0459
      9 C         143.8747  142.9617  164.1669 C.ar    1  UNL1        0.0603
     10 C         142.8282  142.7958  165.2287 C.ar    1  UNL1        0.0145
     11 C         141.4605  143.3792  165.0315 C.ar    1  UNL1       -0.0003
     12 C         141.1392  144.1285  163.7723 C.ar    1  UNL1        0.0092
     13 C         142.1856  144.2945  162.7106 C.ar    1  UNL1        0.1240
     14 N         143.5534  143.7110  162.9079 N.ar    1  UNL1       -0.2356
     15 N         141.8644  145.0438  161.4515 N.pl3   1  UNL1       -0.3184
     16 C         140.4966  145.6271  161.2542 C.3     1  UNL1        0.0885
     17 C         139.4502  145.4612  162.3160 C.3     1  UNL1        0.0260
     18 C         139.7714  144.7119  163.5751 C.3     1  UNL1        0.0309
     19 H         142.5512  145.1527  160.7546 H       1  UNL1        0.1482
     20 C         140.1994  137.9821  163.8015 C.3     1  UNL1        0.0438
     21 C         139.9997  140.0323  167.1937 C.ar    1  UNL1        0.0191
     22 C         138.6913  139.5455  167.7426 C.ar    1  UNL1        0.0015
     23 C         137.8857  138.5376  166.9777 C.ar    1  UNL1       -0.0003
     24 C         138.3883  138.0165  165.6641 C.ar    1  UNL1       -0.0042
     25 C         139.6967  138.5033  165.1152 C.ar    1  UNL1       -0.0207
     26 C         140.5024  139.5112  165.8800 C.ar    1  UNL1       -0.0027
     27 C         143.9763  142.3939  169.7414 C.3     1  UNL1        0.0515
     28 C         142.6333  142.1257  169.1296 C.ar    1  UNL1        0.0535
     29 C         142.2304  140.8794  168.3985 C.ar    1  UNL1        0.0349
     30 C         140.8054  141.0402  167.9585 C.ar    1  UNL1        0.1018
     31 N         140.3276  142.3859  168.4177 N.ar    1  UNL1       -0.1730
     32 N         141.4573  143.0568  169.1414 N.ar    1  UNL1       -0.2798
     33 H         141.4314  143.9512  169.5521 H       1  UNL1        0.1886
     34 C         139.2726  137.8944  162.6253 C.3     1  UNL1        0.0474
     35 C         138.7510  139.1473  161.9864 C.2     1  UNL1        0.0507
     36 O         139.4726  140.4472  162.1855 O.co2   1  UNL1       -0.5492
     37 O         137.5078  139.1003  161.1485 O.co2   1  UNL1       -0.5492
@<TRIPOS>UNITY_ATOM_ATTR
36 1
charge -1
@<TRIPOS>BOND
     1    27    28    1
     2    28    29   ar
     3    29    30   ar
     4    30    21    1
     5    21    22   ar
     6    22    23   ar
     7    23    24   ar
     8    24    25   ar
     9    25    20    1
    10    20    34    1
    11    34    35    1
    12    35    36   ar
    13    35    37   ar
    14    20     1    1
    15     1     2    1
    16     2     3    1
    17     3     4    1
    18     4     5    1
    19     5     7    1
    20     7     8    1
    21     8     9    1
    22     9    10   ar
    23    10    11   ar
    24    11    12   ar
    25    12    13   ar
    26    13    14   ar
    27    13    15    1
    28    15    16    1
    29    16    17    1
    30    17    18    1
    31     5     6    1
    32    25    26   ar
    33    30    31   ar
    34    31    32   ar
    35    32    28   ar
    36    26    21   ar
    37     6     2    1
    38    14     9   ar
    39    18    12    1
    40    15    19    1
    41    32    33    1
@<TRIPOS>MOLECULE
*****
 37 41 0 0 0
SMALL
GASTEIGER

@<TRIPOS>ATOM
      1 C         138.2140  139.0268  163.1924 C.3     1  UNL1        0.0768
      2 N         138.0495  140.5153  163.1083 N.3     1  UNL1       -0.2724
      3 C         137.9857  141.3254  161.8474 C.3     1  UNL1        0.0721
      4 C         137.8166  142.7659  162.2300 C.3     1  UNL1        0.0187
      5 C         137.7757  142.8461  163.7273 C.3     1  UNL1        0.0178
      6 C         137.9197  141.4551  164.2701 C.3     1  UNL1        0.0721
      7 C         137.6186  144.0975  164.5393 C.3     1  UNL1        0.0077
      8 C         138.7751  144.6249  165.3357 C.3     1  UNL1        0.0459
      9 C         140.1329  144.0050  165.1871 C.ar    1  UNL1        0.0603
     10 C         140.6037  142.9835  166.1796 C.ar    1  UNL1        0.0145
     11 C         141.9615  142.3636  166.0310 C.ar    1  UNL1       -0.0003
     12 C         142.8485  142.7651  164.8900 C.ar    1  UNL1        0.0092
     13 C         142.3778  143.7866  163.8975 C.ar    1  UNL1        0.1240
     14 N         141.0199  144.4065  164.0461 N.ar    1  UNL1       -0.2356
     15 N         143.2648  144.1881  162.7565 N.pl3   1  UNL1       -0.3184
     16 C         144.6225  143.5682  162.6079 C.3     1  UNL1        0.0885
     17 C         145.0933  142.5467  163.6004 C.3     1  UNL1        0.0260
     18 C         144.2063  142.1452  164.7414 C.3     1  UNL1        0.0309
     19 H         142.9558  144.8585  162.1051 H       1  UNL1        0.1482
     20 C         139.1889  138.4338  164.1662 C.3     1  UNL1        0.0438
     21 C         142.6564  139.2029  162.3954 C.ar    1  UNL1        0.0191
     22 C         143.6117  138.9636  163.5269 C.ar    1  UNL1        0.0015
     23 C         143.0928  138.5478  164.8714 C.ar    1  UNL1       -0.0003
     24 C         141.6186  138.3712  165.0845 C.ar    1  UNL1       -0.0042
     25 C         140.6632  138.6105  163.9530 C.ar    1  UNL1       -0.0207
     26 C         141.1822  139.0263  162.6085 C.ar    1  UNL1       -0.0027
     27 C         144.0879  142.1556  158.2586 C.3     1  UNL1        0.0515
     28 C         143.8333  140.9759  159.1494 C.ar    1  UNL1        0.0535
     29 C         143.2529  141.0239  160.5317 C.ar    1  UNL1        0.0349
     30 C         143.1753  139.6187  161.0509 C.ar    1  UNL1        0.1018
     31 N         143.7078  138.7023  159.9894 N.ar    1  UNL1       -0.1730
     32 N         144.1145  139.5412  158.8142 N.ar    1  UNL1       -0.2798
     33 H         144.4985  139.2085  157.9709 H       1  UNL1        0.1886
     34 C         138.6896  137.6644  165.3529 C.3     1  UNL1        0.0474
     35 C         138.1544  138.3944  166.5490 C.2     1  UNL1        0.0507
     36 O         138.8759  139.5988  167.0773 O.co2   1  UNL1       -0.5492
     37 O         136.8978  137.9201  167.2169 O.co2   1  UNL1       -0.5492
@<TRIPOS>UNITY_ATOM_ATTR
36 1
charge -1
@<TRIPOS>BOND
     1    27    28    1
     2    28    29   ar
     3    29    30   ar
     4    30    21    1
     5    21    22   ar
     6    22    23   ar
     7    23    24   ar
     8    24    25   ar
     9    25    20    1
    10    20    34    1
    11    34    35    1
    12    35    36   ar
    13    35    37   ar
    14    20     1    1
    15     1     2    1
    16     2     3    1
    17     3     4    1
    18     4     5    1
    19     5     7    1
    20     7     8    1
    21     8     9    1
    22     9    10   ar
    23    10    11   ar
    24    11    12   ar
    25    12    13   ar
    26    13    14   ar
    27    13    15    1
    28    15    16    1
    29    16    17    1
    30    17    18    1
    31     5     6    1
    32    25    26   ar
    33    30    31   ar
    34    31    32   ar
    35    32    28   ar
    36    26    21   ar
    37     6     2    1
    38    14     9   ar
    39    18    12    1
    40    15    19    1
    41    32    33    1
@<TRIPOS>MOLECULE
*****
 37 41 0 0 0
SMALL
GASTEIGER

@<TRIPOS>ATOM
      1 C         140.7787  144.1766  164.6896 C.3     1  UNL1        0.0768
      2 N         142.1152  143.7863  164.1314 N.3     1  UNL1       -0.2724
      3 C         142.7221  144.2968  162.8581 C.3     1  UNL1        0.0721
      4 C         144.0614  143.6430  162.6883 C.3     1  UNL1        0.0187
      5 C         144.2823  142.7286  163.8566 C.3     1  UNL1        0.0178
      6 C         143.0795  142.8172  164.7485 C.3     1  UNL1        0.0721
      7 C         145.4934  141.8754  164.0918 C.3     1  UNL1        0.0077
      8 C         145.3727  140.3804  164.0731 C.3     1  UNL1        0.0459
      9 C         144.0326  139.7387  163.8667 C.ar    1  UNL1        0.0603
     10 C         143.3328  139.0771  165.0167 C.ar    1  UNL1        0.0145
     11 C         141.9928  138.4354  164.8103 C.ar    1  UNL1       -0.0003
     12 C         141.3526  138.4552  163.4539 C.ar    1  UNL1        0.0092
     13 C         142.0525  139.1168  162.3039 C.ar    1  UNL1        0.1240
     14 N         143.3925  139.7585  162.5103 N.ar    1  UNL1       -0.2356
     15 N         141.4123  139.1367  160.9475 N.pl3   1  UNL1       -0.3184
     16 C         140.0724  138.4949  160.7411 C.3     1  UNL1        0.0885
     17 C         139.3725  137.8333  161.8912 C.3     1  UNL1        0.0260
     18 C         140.0127  137.8135  163.2475 C.3     1  UNL1        0.0309
     19 H         141.8717  139.5709  160.1927 H       1  UNL1        0.1482
     20 C         139.5527  143.3985  164.3135 C.3     1  UNL1        0.0438
     21 C         139.5909  140.4666  166.9880 C.ar    1  UNL1        0.0191
     22 C         138.6647  139.4802  166.3406 C.ar    1  UNL1        0.0015
     23 C         138.0345  139.7998  165.0175 C.ar    1  UNL1       -0.0003
     24 C         138.3305  141.1059  164.3418 C.ar    1  UNL1       -0.0042
     25 C         139.2567  142.0923  164.9892 C.ar    1  UNL1       -0.0207
     26 C         139.8869  141.7727  166.3124 C.ar    1  UNL1       -0.0027
     27 C         143.1806  139.6114  170.7648 C.3     1  UNL1        0.0515
     28 C         141.8712  139.7539  170.0471 C.ar    1  UNL1        0.0535
     29 C         141.6922  140.1189  168.6033 C.ar    1  UNL1        0.0349
     30 C         140.2211  140.1470  168.3111 C.ar    1  UNL1        0.1018
     31 N         139.4910  139.7993  169.5745 N.ar    1  UNL1       -0.1730
     32 N         140.5108  139.5563  170.6474 N.ar    1  UNL1       -0.2798
     33 H         140.3206  139.3104  171.5815 H       1  UNL1        0.1886
     34 C         138.6226  143.9264  163.2617 C.3     1  UNL1        0.0474
     35 C         139.1755  144.4913  161.9868 C.2     1  UNL1        0.0507
     36 O         139.0884  145.9648  161.7194 O.co2   1  UNL1       -0.5492
     37 O         139.8152  143.5827  160.9793 O.co2   1  UNL1       -0.5492
@<TRIPOS>UNITY_ATOM_ATTR
36 1
charge -1
@<TRIPOS>BOND
     1    27    28    1
     2    28    29   ar
     3    29    30   ar
     4    30    21    1
     5    21    22   ar
     6    22    23   ar
     7    23    24   ar
     8    24    25   ar
     9    25    20    1
    10    20    34    1
    11    34    35    1
    12    35    36   ar
    13    35    37   ar
    14    20     1    1
    15     1     2    1
    16     2     3    1
    17     3     4    1
    18     4     5    1
    19     5     7    1
    20     7     8    1
    21     8     9    1
    22     9    10   ar
    23    10    11   ar
    24    11    12   ar
    25    12    13   ar
    26    13    14   ar
    27    13    15    1
    28    15    16    1
    29    16    17    1
    30    17    18    1
    31     5     6    1
    32    25    26   ar
    33    30    31   ar
    34    31    32   ar
    35    32    28   ar
    36    26    21   ar
    37     6     2    1
    38    14     9   ar
    39    18    12    1
    40    15    19    1
    41    32    33    1
@<TRIPOS>MOLECULE
*****
 37 41 0 0 0
SMALL
GASTEIGER

@<TRIPOS>ATOM
      1 C         144.5476  142.4948  163.1813 C.3     1  UNL1        0.0768
      2 N         143.4384  143.5036  163.2268 N.3     1  UNL1       -0.2724
      3 C         143.4535  144.7971  163.9862 C.3     1  UNL1        0.0721
      4 C         142.1437  145.4888  163.7495 C.3     1  UNL1        0.0187
      5 C         141.3192  144.6229  162.8438 C.3     1  UNL1        0.0178
      6 C         142.1193  143.3960  162.5208 C.3     1  UNL1        0.0721
      7 C         139.9372  144.9300  162.3483 C.3     1  UNL1        0.0077
      8 C         138.7517  144.2426  162.9582 C.3     1  UNL1        0.0459
      9 C         138.9146  142.8988  163.6047 C.ar    1  UNL1        0.0603
     10 C         139.1436  142.8010  165.0839 C.ar    1  UNL1        0.0145
     11 C         139.3064  141.4573  165.7304 C.ar    1  UNL1       -0.0003
     12 C         139.2403  140.2114  164.8976 C.ar    1  UNL1        0.0092
     13 C         139.0113  140.3092  163.4185 C.ar    1  UNL1        0.1240
     14 N         138.8484  141.6530  162.7720 N.ar    1  UNL1       -0.2356
     15 N         138.9452  139.0634  162.5857 N.pl3   1  UNL1       -0.3184
     16 C         139.1080  137.7197  163.2322 C.3     1  UNL1        0.0885
     17 C         139.3370  137.6219  164.7114 C.3     1  UNL1        0.0260
     18 C         139.4031  138.8677  165.5441 C.3     1  UNL1        0.0309
     19 H         138.7949  139.1276  161.6149 H       1  UNL1        0.1482
     20 C         144.2400  141.0345  163.3321 C.3     1  UNL1        0.0438
     21 C         142.8807  140.9281  167.0592 C.ar    1  UNL1        0.0191
     22 C         142.7095  139.4510  167.2565 C.ar    1  UNL1        0.0015
     23 C         143.0484  138.5017  166.1456 C.ar    1  UNL1       -0.0003
     24 C         143.5586  139.0296  164.8376 C.ar    1  UNL1       -0.0042
     25 C         143.7298  140.5067  164.6403 C.ar    1  UNL1       -0.0207
     26 C         143.3909  141.4559  165.7512 C.ar    1  UNL1       -0.0027
     27 C         140.1916  144.1309  170.2828 C.3     1  UNL1        0.0515
     28 C         141.3057  143.3495  169.6518 C.ar    1  UNL1        0.0535
     29 C         141.1864  142.4537  168.4546 C.ar    1  UNL1        0.0349
     30 C         142.5418  141.8773  168.1701 C.ar    1  UNL1        0.1018
     31 N         143.4986  142.4169  169.1915 N.ar    1  UNL1       -0.1730
     32 N         142.7347  143.3268  170.1073 N.ar    1  UNL1       -0.2798
     33 H         143.1060  143.8220  170.8728 H       1  UNL1        0.1886
     34 C         144.4425  140.1020  162.1748 C.3     1  UNL1        0.0474
     35 C         143.3052  139.8051  161.2429 C.2     1  UNL1        0.0507
     36 O         141.8895  139.9444  161.7189 O.co2   1  UNL1       -0.5492
     37 O         143.5836  139.3690  159.8349 O.co2   1  UNL1       -0.5492
@<TRIPOS>UNITY_ATOM_ATTR
36 1
charge -1
@<TRIPOS>BOND
     1    27    28    1
     2    28    29   ar
     3    29    30   ar
     4    30    21    1
     5    21    22   ar
     6    22    23   ar
     7    23    24   ar
     8    24    25   ar
     9    25    20    1
    10    20    34    1
    11    34    35    1
    12    35    36   ar
    13    35    37   ar
    14    20     1    1
    15     1     2    1
    16     2     3    1
    17     3     4    1
    18     4     5    1
    19     5     7    1
    20     7     8    1
    21     8     9    1
    22     9    10   ar
    23    10    11   ar
    24    11    12   ar
    25    12    13   ar
    26    13    14   ar
    27    13    15    1
    28    15    16    1
    29    16    17    1
    30    17    18    1
    31     5     6    1
    32    25    26   ar
    33    30    31   ar
    34    31    32   ar
    35    32    28   ar
    36    26    21   ar
    37     6     2    1
    38    14     9   ar
    39    18    12    1
    40    15    19    1
    41    32    33    1
@<TRIPOS>MOLECULE
*****
 37 41 0 0 0
SMALL
GASTEIGER

@<TRIPOS>ATOM
      1 C         138.9878  143.8713  163.4334 C.3     1  UNL1        0.0768
      2 N         138.6667  142.6267  162.6602 N.3     1  UNL1       -0.2724
      3 C         138.4994  142.5314  161.1725 C.3     1  UNL1        0.0721
      4 C         138.1858  141.1047  160.8318 C.3     1  UNL1        0.0187
      5 C         138.1592  140.3182  162.1088 C.3     1  UNL1        0.0178
      6 C         138.4564  141.2589  163.2388 C.3     1  UNL1        0.0721
      7 C         137.8839  138.8491  162.2338 C.3     1  UNL1        0.0077
      8 C         139.0199  137.8697  162.2253 C.3     1  UNL1        0.0459
      9 C         140.3188  138.2219  162.8880 C.ar    1  UNL1        0.0603
     10 C         140.6256  137.7016  164.2610 C.ar    1  UNL1        0.0145
     11 C         141.9243  138.0537  164.9236 C.ar    1  UNL1       -0.0003
     12 C         142.9164  138.9264  164.2133 C.ar    1  UNL1        0.0092
     13 C         142.6096  139.4467  162.8403 C.ar    1  UNL1        0.1240
     14 N         141.3107  139.0945  162.1777 N.ar    1  UNL1       -0.2356
     15 N         143.6015  140.3193  162.1300 N.pl3   1  UNL1       -0.3184
     16 C         144.9003  140.6715  162.7927 C.3     1  UNL1        0.0885
     17 C         145.2071  140.1511  164.1656 C.3     1  UNL1        0.0260
     18 C         144.2151  139.2785  164.8760 C.3     1  UNL1        0.0309
     19 H         143.4002  140.6609  161.2289 H       1  UNL1        0.1482
     20 C         140.3744  144.4421  163.3937 C.3     1  UNL1        0.0438
     21 C         142.1684  142.3075  166.2177 C.ar    1  UNL1        0.0191
     22 C         143.6001  142.7009  166.0039 C.ar    1  UNL1        0.0015
     23 C         143.9565  143.6747  164.9201 C.ar    1  UNL1       -0.0003
     24 C         142.8813  144.2551  164.0501 C.ar    1  UNL1       -0.0042
     25 C         141.4496  143.8617  164.2638 C.ar    1  UNL1       -0.0207
     26 C         141.0932  142.8879  165.3476 C.ar    1  UNL1       -0.0027
     27 C         142.5584  138.7320  170.0835 C.3     1  UNL1        0.0515
     28 C         141.9913  139.6902  169.0784 C.ar    1  UNL1        0.0535
     29 C         142.7800  140.5267  168.1151 C.ar    1  UNL1        0.0349
     30 C         141.8120  141.3337  167.3015 C.ar    1  UNL1        0.1018
     31 N         140.4251  140.9958  167.7621 N.ar    1  UNL1       -0.1730
     32 N         140.5359  139.9801  168.8603 N.ar    1  UNL1       -0.2798
     33 H         139.7851  139.5748  169.3516 H       1  UNL1        0.1886
     34 C         140.6857  145.5934  162.4839 C.3     1  UNL1        0.0474
     35 C         140.8226  145.3668  161.0075 C.2     1  UNL1        0.0507
     36 O         142.0781  144.7593  160.4552 O.co2   1  UNL1       -0.5492
     37 O         139.7042  145.7477  160.0833 O.co2   1  UNL1       -0.5492
@<TRIPOS>UNITY_ATOM_ATTR
36 1
charge -1
@<TRIPOS>BOND
     1    27    28    1
     2    28    29   ar
     3    29    30   ar
     4    30    21    1
     5    21    22   ar
     6    22    23   ar
     7    23    24   ar
     8    24    25   ar
     9    25    20    1
    10    20    34    1
    11    34    35    1
    12    35    36   ar
    13    35    37   ar
    14    20     1    1
    15     1     2    1
    16     2     3    1
    17     3     4    1
    18     4     5    1
    19     5     7    1
    20     7     8    1
    21     8     9    1
    22     9    10   ar
    23    10    11   ar
    24    11    12   ar
    25    12    13   ar
    26    13    14   ar
    27    13    15    1
    28    15    16    1
    29    16    17    1
    30    17    18    1
    31     5     6    1
    32    25    26   ar
    33    30    31   ar
    34    31    32   ar
    35    32    28   ar
    36    26    21   ar
    37     6     2    1
    38    14     9   ar
    39    18    12    1
    40    15    19    1
    41    32    33    1
@<TRIPOS>MOLECULE
*****
 37 41 0 0 0
SMALL
GASTEIGER

@<TRIPOS>ATOM
      1 C         141.9033  140.6713  168.4356 C.3     1  UNL1        0.0768
      2 N         142.6767  140.7927  167.1561 N.3     1  UNL1       -0.2724
      3 C         143.0986  142.0734  166.4990 C.3     1  UNL1        0.0721
      4 C         143.8467  141.7269  165.2459 C.3     1  UNL1        0.0187
      5 C         143.8871  140.2321  165.1285 C.3     1  UNL1        0.0178
      6 C         143.1641  139.6547  166.3091 C.3     1  UNL1        0.0721
      7 C         144.5366  139.4516  164.0244 C.3     1  UNL1        0.0077
      8 C         143.6964  138.8455  162.9397 C.3     1  UNL1        0.0459
      9 C         142.6190  139.6572  162.2835 C.ar    1  UNL1        0.0603
     10 C         141.1803  139.2656  162.4469 C.ar    1  UNL1        0.0145
     11 C         140.1030  140.0772  161.7907 C.ar    1  UNL1       -0.0003
     12 C         140.4643  141.2806  160.9712 C.ar    1  UNL1        0.0092
     13 C         141.9031  141.6722  160.8079 C.ar    1  UNL1        0.1240
     14 N         142.9804  140.8605  161.4641 N.ar    1  UNL1       -0.2356
     15 N         142.2645  142.8754  159.9884 N.pl3   1  UNL1       -0.3184
     16 C         141.1871  143.6870  159.3323 C.3     1  UNL1        0.0885
     17 C         139.7484  143.2954  159.4956 C.3     1  UNL1        0.0260
     18 C         139.3870  142.0922  160.3151 C.3     1  UNL1        0.0309
     19 H         143.2087  143.1324  159.8813 H       1  UNL1        0.1482
     20 C         140.4140  140.8506  168.4316 C.3     1  UNL1        0.0438
     21 C         138.7719  141.7629  164.9357 C.ar    1  UNL1        0.0191
     22 C         138.1114  140.4627  164.5849 C.ar    1  UNL1        0.0015
     23 C         138.2184  139.2917  165.5162 C.ar    1  UNL1       -0.0003
     24 C         138.9859  139.4211  166.7984 C.ar    1  UNL1       -0.0042
     25 C         139.6465  140.7213  167.1493 C.ar    1  UNL1       -0.0207
     26 C         139.5394  141.8922  166.2180 C.ar    1  UNL1       -0.0027
     27 C         139.9820  146.0419  162.0885 C.3     1  UNL1        0.0515
     28 C         139.2211  144.9007  162.6957 C.ar    1  UNL1        0.0535
     29 C         139.7685  143.8890  163.6584 C.ar    1  UNL1        0.0349
     30 C         138.6648  142.9339  164.0044 C.ar    1  UNL1        0.1018
     31 N         137.4354  143.3553  163.2555 N.ar    1  UNL1       -0.1730
     32 N         137.7792  144.5709  162.4467 N.ar    1  UNL1       -0.2798
     33 H         137.1661  145.0654  161.8561 H       1  UNL1        0.1886
     34 C         139.6924  141.1591  169.7099 C.3     1  UNL1        0.0474
     35 C         140.1217  142.3244  170.5511 C.2     1  UNL1        0.0507
     36 O         140.7899  142.0892  171.8734 O.co2   1  UNL1       -0.5492
     37 O         139.8828  143.7250  170.0702 O.co2   1  UNL1       -0.5492
@<TRIPOS>UNITY_ATOM_ATTR
36 1
charge -1
@<TRIPOS>BOND
     1    27    28    1
     2    28    29   ar
     3    29    30   ar
     4    30    21    1
     5    21    22   ar
     6    22    23   ar
     7    23    24   ar
     8    24    25   ar
     9    25    20    1
    10    20    34    1
    11    34    35    1
    12    35    36   ar
    13    35    37   ar
    14    20     1    1
    15     1     2    1
    16     2     3    1
    17     3     4    1
    18     4     5    1
    19     5     7    1
    20     7     8    1
    21     8     9    1
    22     9    10   ar
    23    10    11   ar
    24    11    12   ar
    25    12    13   ar
    26    13    14   ar
    27    13    15    1
    28    15    16    1
    29    16    17    1
    30    17    18    1
    31     5     6    1
    32    25    26   ar
    33    30    31   ar
    34    31    32   ar
    35    32    28   ar
    36    26    21   ar
    37     6     2    1
    38    14     9   ar
    39    18    12    1
    40    15    19    1
    41    32    33    1
@<TRIPOS>MOLECULE
*****
 37 41 0 0 0
SMALL
GASTEIGER

@<TRIPOS>ATOM
      1 C         139.5173  144.2994  165.6217 C.3     1  UNL1        0.0768
      2 N         139.7059  143.0131  166.3700 N.3     1  UNL1       -0.2724
      3 C         140.3866  142.8570  167.6975 C.3     1  UNL1        0.0721
      4 C         140.3483  141.4045  168.0701 C.3     1  UNL1        0.0187
      5 C         139.6439  140.6629  166.9729 C.3     1  UNL1        0.0178
      6 C         139.2469  141.6571  165.9222 C.3     1  UNL1        0.0721
      7 C         139.3825  139.1865  166.9334 C.3     1  UNL1        0.0077
      8 C         138.4244  138.6212  165.9272 C.3     1  UNL1        0.0459
      9 C         138.7979  138.5831  164.4749 C.ar    1  UNL1        0.0603
     10 C         139.8981  137.6772  164.0069 C.ar    1  UNL1        0.0145
     11 C         140.2716  137.6391  162.5547 C.ar    1  UNL1       -0.0003
     12 C         139.5449  138.5069  161.5703 C.ar    1  UNL1        0.0092
     13 C         138.4447  139.4128  162.0383 C.ar    1  UNL1        0.1240
     14 N         138.0712  139.4509  163.4906 N.ar    1  UNL1       -0.2356
     15 N         137.7180  140.2806  161.0540 N.pl3   1  UNL1       -0.3184
     16 C         138.0915  140.2425  159.6018 C.3     1  UNL1        0.0885
     17 C         139.1917  139.3366  159.1338 C.3     1  UNL1        0.0260
     18 C         139.9184  138.4688  160.1181 C.3     1  UNL1        0.0309
     19 H         136.9960  140.8752  161.3611 H       1  UNL1        0.1482
     20 C         139.8866  144.3838  164.1703 C.3     1  UNL1        0.0438
     21 C         143.1565  142.4648  162.9977 C.ar    1  UNL1        0.0191
     22 C         144.1259  143.6033  162.8781 C.ar    1  UNL1        0.0015
     23 C         143.6821  145.0019  163.1893 C.ar    1  UNL1       -0.0003
     24 C         142.2690  145.2621  163.6200 C.ar    1  UNL1       -0.0042
     25 C         141.2997  144.1236  163.7395 C.ar    1  UNL1       -0.0207
     26 C         141.7435  142.7249  163.4284 C.ar    1  UNL1       -0.0027
     27 C         143.5553  137.7076  160.7412 C.3     1  UNL1        0.0515
     28 C         143.7836  138.8795  161.6493 C.ar    1  UNL1        0.0535
     29 C         143.0528  140.1885  161.6002 C.ar    1  UNL1        0.0349
     30 C         143.6003  141.0661  162.6865 C.ar    1  UNL1        0.1018
     31 N         144.6695  140.2995  163.4070 N.ar    1  UNL1       -0.1730
     32 N         144.7827  138.9481  162.7659 N.ar    1  UNL1       -0.2798
     33 H         145.4038  138.2319  163.0315 H       1  UNL1        0.1886
     34 C         138.8428  144.7284  163.1497 C.3     1  UNL1        0.0474
     35 C         138.1732  143.6397  162.3645 C.2     1  UNL1        0.0507
     36 O         138.4522  143.4924  160.8980 O.co2   1  UNL1       -0.5492
     37 O         137.2248  142.6983  163.0458 O.co2   1  UNL1       -0.5492
@<TRIPOS>UNITY_ATOM_ATTR
36 1
charge -1
@<TRIPOS>BOND
     1    27    28    1
     2    28    29   ar
     3    29    30   ar
     4    30    21    1
     5    21    22   ar
     6    22    23   ar
     7    23    24   ar
     8    24    25   ar
     9    25    20    1
    10    20    34    1
    11    34    35    1
    12    35    36   ar
    13    35    37   ar
    14    20     1    1
    15     1     2    1
    16     2     3    1
    17     3     4    1
    18     4     5    1
    19     5     7    1
    20     7     8    1
    21     8     9    1
    22     9    10   ar
    23    10    11   ar
    24    11    12   ar
    25    12    13   ar
    26    13    14   ar
    27    13    15    1
    28    15    16    1
    29    16    17    1
    30    17    18    1
    31     5     6    1
    32    25    26   ar
    33    30    31   ar
    34    31    32   ar
    35    32    28   ar
    36    26    21   ar
    37     6     2    1
    38    14     9   ar
    39    18    12    1
    40    15    19    1
    41    32    33    1
