@<TRIPOS>MOLECULE
*****
 31 35 0 0 0
SMALL
GASTEIGER

@<TRIPOS>ATOM
      1 C         140.3981  146.0413  162.4563 C.3     1  UNL1        0.0730
      2 C         142.5851  138.4075  170.3436 C.3     1  UNL1        0.0594
      3 C         142.2920  139.4306  169.2865 C.ar    1  UNL1        0.0886
      4 N         143.2486  139.9124  168.2364 N.ar    1  UNL1       -0.2427
      5 C         142.5387  140.9310  167.3949 C.ar    1  UNL1        0.0871
      6 C         142.9826  141.7431  166.2144 C.ar    1  UNL1        0.0151
      7 C         142.0310  142.7031  165.5640 C.ar    1  UNL1       -0.0232
      8 C         140.6357  142.8509  166.0940 C.ar    1  UNL1       -0.0241
      9 C         140.1917  142.0389  167.2745 C.ar    1  UNL1        0.0035
     10 C         141.1432  141.0789  167.9249 C.ar    1  UNL1        0.0478
     11 S         140.9908  140.1516  169.0940 S.2     1  UNL1       -0.0708
     12 C         139.5364  143.7431  165.5981 C.3     1  UNL1        0.0434
     13 C         139.5612  144.7076  164.4495 C.3     1  UNL1        0.0768
     14 N         140.6912  145.0182  163.5134 N.3     1  UNL1       -0.2720
     15 C         142.0756  144.4411  163.4944 C.3     1  UNL1        0.0768
     16 C         142.6719  143.4108  164.4071 C.3     1  UNL1        0.0434
     17 C         139.6781  145.6400  161.2031 C.3     1  UNL1        0.0294
     18 C         140.3864  144.8305  160.1576 C.3     1  UNL1        0.0666
     19 S         140.1079  143.3622  160.0297 S.3     1  UNL1       -0.0756
     20 C         139.2403  142.6726  161.0405 C.ar    1  UNL1        0.1933
     21 N         137.7857  142.9443  161.2857 N.ar    1  UNL1       -0.1220
     22 N         137.3214  142.0298  162.3803 N.ar    1  UNL1       -0.1250
     23 C         138.4891  141.1928  162.8115 C.ar    1  UNL1        0.2029
     24 N         139.6751  141.5901  161.9834 N.ar    1  UNL1       -0.2860
     25 C         141.0537  141.0071  162.0812 C.3     1  UNL1        0.1341
     26 C         138.4735  140.1429  163.8827 C.ar    1  UNL1        0.1964
     27 O         138.2224  140.3768  165.3428 O.2     1  UNL1       -0.4283
     28 C         138.3000  139.0532  166.0444 C.ar    1  UNL1        0.2849
     29 N         138.5992  138.0013  165.0178 N.ar    1  UNL1       -0.2085
     30 C         138.7064  138.6748  163.6817 C.ar    1  UNL1        0.1001
     31 C         138.9958  137.9988  162.3743 C.3     1  UNL1        0.0556
@<TRIPOS>BOND
     1     2     3    1
     2     3     4   ar
     3     4     5   ar
     4     5     6   ar
     5     6     7   ar
     6     7     8   ar
     7     8     9   ar
     8     9    10   ar
     9    10    11   ar
    10     8    12    1
    11    12    13    1
    12    13    14    1
    13    14     1    1
    14     1    17    1
    15    17    18    1
    16    18    19    1
    17    19    20    1
    18    20    21   ar
    19    21    22   ar
    20    22    23   ar
    21    23    26    1
    22    26    27   ar
    23    27    28   ar
    24    28    29   ar
    25    29    30   ar
    26    30    31    1
    27    23    24   ar
    28    24    25    1
    29    14    15    1
    30    15    16    1
    31    11     3   ar
    32    24    20   ar
    33    10     5   ar
    34    30    26   ar
    35    16     7    1
@<TRIPOS>MOLECULE
*****
 31 35 0 0 0
SMALL
GASTEIGER

@<TRIPOS>ATOM
      1 C         143.2480  138.5166  167.0688 C.3     1  UNL1        0.0730
      2 C         142.0526  139.1006  155.9558 C.3     1  UNL1        0.0594
      3 C         142.2127  139.0223  157.4452 C.ar    1  UNL1        0.0886
      4 N         141.2729  138.3460  158.3988 N.ar    1  UNL1       -0.2427
      5 C         141.8202  138.5124  159.7854 C.ar    1  UNL1        0.0871
      6 C         141.3199  138.0550  161.1235 C.ar    1  UNL1        0.0151
      7 C         142.0978  138.3768  162.3651 C.ar    1  UNL1       -0.0232
      8 C         143.3758  139.1558  162.2685 C.ar    1  UNL1       -0.0241
      9 C         143.8762  139.6132  160.9305 C.ar    1  UNL1        0.0035
     10 C         143.0984  139.2915  159.6888 C.ar    1  UNL1        0.0478
     11 S         143.3410  139.6066  158.2425 S.2     1  UNL1       -0.0708
     12 C         144.2981  139.5804  163.3727 C.3     1  UNL1        0.0434
     13 C         144.1698  139.3307  164.8463 C.3     1  UNL1        0.0768
     14 N         143.0878  138.5948  165.5794 N.3     1  UNL1       -0.2720
     15 C         141.8667  137.9268  165.0202 C.3     1  UNL1        0.0768
     16 C         141.4260  137.8298  163.5897 C.3     1  UNL1        0.0434
     17 C         142.8568  139.6826  167.9276 C.3     1  UNL1        0.0294
     18 C         141.6936  139.5651  168.8674 C.3     1  UNL1        0.0666
     19 S         140.4487  140.3654  168.6235 S.3     1  UNL1       -0.0756
     20 C         139.5038  139.9677  167.5284 C.ar    1  UNL1        0.1933
     21 N         138.3319  139.0420  167.6682 N.ar    1  UNL1       -0.1220
     22 N         137.6688  138.9279  166.3275 N.ar    1  UNL1       -0.1250
     23 C         138.4310  139.7832  165.3592 C.ar    1  UNL1        0.2029
     24 N         139.5651  140.4258  166.1014 N.ar    1  UNL1       -0.2860
     25 C         140.5819  141.3621  165.5189 C.3     1  UNL1        0.1341
     26 C         138.1146  139.9641  163.9042 C.ar    1  UNL1        0.1964
     27 O         138.1728  138.8986  162.8501 O.2     1  UNL1       -0.4283
     28 C         137.7786  139.5183  161.5422 C.ar    1  UNL1        0.2849
     29 N         137.4767  140.9669  161.7880 N.ar    1  UNL1       -0.2085
     30 C         137.6844  141.2425  163.2478 C.ar    1  UNL1        0.1001
     31 C         137.4951  142.5643  163.9311 C.3     1  UNL1        0.0556
@<TRIPOS>BOND
     1     2     3    1
     2     3     4   ar
     3     4     5   ar
     4     5     6   ar
     5     6     7   ar
     6     7     8   ar
     7     8     9   ar
     8     9    10   ar
     9    10    11   ar
    10     8    12    1
    11    12    13    1
    12    13    14    1
    13    14     1    1
    14     1    17    1
    15    17    18    1
    16    18    19    1
    17    19    20    1
    18    20    21   ar
    19    21    22   ar
    20    22    23   ar
    21    23    26    1
    22    26    27   ar
    23    27    28   ar
    24    28    29   ar
    25    29    30   ar
    26    30    31    1
    27    23    24   ar
    28    24    25    1
    29    14    15    1
    30    15    16    1
    31    11     3   ar
    32    24    20   ar
    33    10     5   ar
    34    30    26   ar
    35    16     7    1
@<TRIPOS>MOLECULE
*****
 31 35 0 0 0
SMALL
GASTEIGER

@<TRIPOS>ATOM
      1 C         139.1509  138.1327  160.6930 C.3     1  UNL1        0.0730
      2 C         141.8732  140.9114  171.1875 C.3     1  UNL1        0.0594
      3 C         141.5083  140.5390  169.7811 C.ar    1  UNL1        0.0886
      4 N         140.1558  140.6926  169.1509 N.ar    1  UNL1       -0.2427
      5 C         140.2436  140.1962  167.7382 C.ar    1  UNL1        0.0871
      6 C         139.2242  140.1039  166.6416 C.ar    1  UNL1        0.0151
      7 C         139.6116  139.5511  165.3020 C.ar    1  UNL1       -0.0232
      8 C         141.0183  139.0907  165.0591 C.ar    1  UNL1       -0.0241
      9 C         142.0377  139.1830  166.1556 C.ar    1  UNL1        0.0035
     10 C         141.6503  139.7357  167.4952 C.ar    1  UNL1        0.0478
     11 S         142.4320  139.9476  168.7578 S.2     1  UNL1       -0.0708
     12 C         141.6102  138.5124  163.8079 C.3     1  UNL1        0.0434
     13 C         140.9414  138.2518  162.4907 C.3     1  UNL1        0.0768
     14 N         139.5157  138.5051  162.0995 N.3     1  UNL1       -0.2720
     15 C         138.4066  139.0816  162.9286 C.3     1  UNL1        0.0768
     16 C         138.4492  139.5471  164.3539 C.3     1  UNL1        0.0434
     17 C         139.3279  139.1270  159.5839 C.3     1  UNL1        0.0294
     18 C         138.2355  140.1071  159.2737 C.3     1  UNL1        0.0666
     19 S         138.5618  141.5588  159.0847 S.3     1  UNL1       -0.0756
     20 C         139.0601  142.3725  160.2421 C.ar    1  UNL1        0.1933
     21 N         138.2113  143.1523  161.2019 N.ar    1  UNL1       -0.1220
     22 N         139.1212  143.8110  162.1960 N.ar    1  UNL1       -0.1250
     23 C         140.5325  143.4382  161.8505 C.ar    1  UNL1        0.2029
     24 N         140.4947  142.5491  160.6429 N.ar    1  UNL1       -0.2860
     25 C         141.6830  141.9432  159.9567 C.3     1  UNL1        0.1341
     26 C         141.7651  143.8773  162.5838 C.ar    1  UNL1        0.1964
     27 O         142.9258  144.6200  161.9915 O.2     1  UNL1       -0.4283
     28 C         143.9316  144.8526  163.0798 C.ar    1  UNL1        0.2849
     29 N         143.3924  144.2535  164.3449 N.ar    1  UNL1       -0.2085
     30 C         142.0534  143.6507  164.0383 C.ar    1  UNL1        0.1001
     31 C         141.1597  142.9453  165.0149 C.3     1  UNL1        0.0556
@<TRIPOS>BOND
     1     2     3    1
     2     3     4   ar
     3     4     5   ar
     4     5     6   ar
     5     6     7   ar
     6     7     8   ar
     7     8     9   ar
     8     9    10   ar
     9    10    11   ar
    10     8    12    1
    11    12    13    1
    12    13    14    1
    13    14     1    1
    14     1    17    1
    15    17    18    1
    16    18    19    1
    17    19    20    1
    18    20    21   ar
    19    21    22   ar
    20    22    23   ar
    21    23    26    1
    22    26    27   ar
    23    27    28   ar
    24    28    29   ar
    25    29    30   ar
    26    30    31    1
    27    23    24   ar
    28    24    25    1
    29    14    15    1
    30    15    16    1
    31    11     3   ar
    32    24    20   ar
    33    10     5   ar
    34    30    26   ar
    35    16     7    1
@<TRIPOS>MOLECULE
*****
 31 35 0 0 0
SMALL
GASTEIGER

@<TRIPOS>ATOM
      1 C         137.7584  139.9902  160.4418 C.3     1  UNL1        0.0730
      2 C         141.0412  141.2640  171.0658 C.3     1  UNL1        0.0594
      3 C         140.6012  141.0933  169.6419 C.ar    1  UNL1        0.0886
      4 N         140.1677  139.8082  169.0011 N.ar    1  UNL1       -0.2427
      5 C         139.8161  140.0984  167.5721 C.ar    1  UNL1        0.0871
      6 C         139.3270  139.2183  166.4602 C.ar    1  UNL1        0.0151
      7 C         139.0541  139.8028  165.1059 C.ar    1  UNL1       -0.0232
      8 C         139.2703  141.2671  164.8636 C.ar    1  UNL1       -0.0241
      9 C         139.7594  142.1472  165.9754 C.ar    1  UNL1        0.0035
     10 C         140.0323  141.5628  167.3297 C.ar    1  UNL1        0.0478
     11 S         140.5175  142.1777  168.6089 S.2     1  UNL1       -0.0708
     12 C         139.0611  142.0467  163.5992 C.3     1  UNL1        0.0434
     13 C         138.5841  141.5544  162.2650 C.3     1  UNL1        0.0768
     14 N         138.1984  140.1610  161.8657 N.3     1  UNL1       -0.2720
     15 C         138.1945  138.9156  162.7018 C.3     1  UNL1        0.0768
     16 C         138.5753  138.7562  164.1439 C.3     1  UNL1        0.0434
     17 C         138.7764  139.9626  159.3404 C.3     1  UNL1        0.0294
     18 C         139.5525  138.7083  159.0676 C.3     1  UNL1        0.0666
     19 S         141.0041  138.6292  159.4370 S.3     1  UNL1       -0.0756
     20 C         141.4167  138.7063  160.8771 C.ar    1  UNL1        0.1933
     21 N         141.4701  137.5588  161.8416 N.ar    1  UNL1       -0.1220
     22 N         141.9348  138.0876  163.1661 N.ar    1  UNL1       -0.1250
     23 C         142.1687  139.5621  163.0202 C.ar    1  UNL1        0.2029
     24 N         141.8485  139.9445  161.6055 N.ar    1  UNL1       -0.2860
     25 C         141.9434  141.3230  161.0217 C.3     1  UNL1        0.1341
     26 C         142.6400  140.4911  164.0994 C.ar    1  UNL1        0.1964
     27 O         142.8157  141.9751  163.9707 O.2     1  UNL1       -0.4283
     28 C         143.3027  142.5004  165.2886 C.ar    1  UNL1        0.2849
     29 N         143.4279  141.3410  166.2320 N.ar    1  UNL1       -0.2085
     30 C         143.0184  140.0991  165.4970 C.ar    1  UNL1        0.1001
     31 C         142.9919  138.7093  166.0607 C.3     1  UNL1        0.0556
@<TRIPOS>BOND
     1     2     3    1
     2     3     4   ar
     3     4     5   ar
     4     5     6   ar
     5     6     7   ar
     6     7     8   ar
     7     8     9   ar
     8     9    10   ar
     9    10    11   ar
    10     8    12    1
    11    12    13    1
    12    13    14    1
    13    14     1    1
    14     1    17    1
    15    17    18    1
    16    18    19    1
    17    19    20    1
    18    20    21   ar
    19    21    22   ar
    20    22    23   ar
    21    23    26    1
    22    26    27   ar
    23    27    28   ar
    24    28    29   ar
    25    29    30   ar
    26    30    31    1
    27    23    24   ar
    28    24    25    1
    29    14    15    1
    30    15    16    1
    31    11     3   ar
    32    24    20   ar
    33    10     5   ar
    34    30    26   ar
    35    16     7    1
@<TRIPOS>MOLECULE
*****
 31 35 0 0 0
SMALL
GASTEIGER

@<TRIPOS>ATOM
      1 C         138.8470  137.4326  163.0051 C.3     1  UNL1        0.0730
      2 C         143.3451  143.7568  171.0698 C.3     1  UNL1        0.0594
      3 C         142.7423  142.9092  169.9889 C.ar    1  UNL1        0.0886
      4 N         143.4585  142.3767  168.7833 N.ar    1  UNL1       -0.2427
      5 C         142.4763  141.5837  167.9733 C.ar    1  UNL1        0.0871
      6 C         142.6159  140.8285  166.6847 C.ar    1  UNL1        0.0151
      7 C         141.4321  140.1157  166.1012 C.ar    1  UNL1       -0.0232
      8 C         140.1088  140.1580  166.8061 C.ar    1  UNL1       -0.0241
      9 C         139.9691  140.9132  168.0945 C.ar    1  UNL1        0.0035
     10 C         141.1529  141.6261  168.6782 C.ar    1  UNL1        0.0478
     11 S         141.3173  142.4452  169.9239 S.2     1  UNL1       -0.0708
     12 C         138.8123  139.5217  166.4005 C.3     1  UNL1        0.0434
     13 C         138.5191  138.6860  165.1899 C.3     1  UNL1        0.0768
     14 N         139.4499  138.2802  164.0859 N.3     1  UNL1       -0.2720
     15 C         140.9038  138.6097  163.9197 C.3     1  UNL1        0.0768
     16 C         141.7859  139.4266  164.8166 C.3     1  UNL1        0.0434
     17 C         137.8929  138.0401  162.0198 C.3     1  UNL1        0.0294
     18 C         138.3054  139.2383  161.2172 C.3     1  UNL1        0.0666
     19 S         137.8873  140.6119  161.6513 S.3     1  UNL1       -0.0756
     20 C         138.7854  141.4246  162.5361 C.ar    1  UNL1        0.1933
     21 N         138.3971  142.0670  163.8348 N.ar    1  UNL1       -0.1220
     22 N         139.6011  142.7771  164.3790 N.ar    1  UNL1       -0.1250
     23 C         140.7335  142.5736  163.4166 C.ar    1  UNL1        0.2029
     24 N         140.2294  141.7377  162.2776 N.ar    1  UNL1       -0.2860
     25 C         141.0289  141.2930  161.0889 C.3     1  UNL1        0.1341
     26 C         142.1256  143.1115  163.5668 C.ar    1  UNL1        0.1964
     27 O         143.3808  142.2956  163.6606 O.2     1  UNL1       -0.4283
     28 C         144.5380  143.2396  163.8013 C.ar    1  UNL1        0.2849
     29 N         143.9980  144.6390  163.7945 N.ar    1  UNL1       -0.2085
     30 C         142.5071  144.5598  163.6495 C.ar    1  UNL1        0.1001
     31 C         141.5634  145.7246  163.5967 C.3     1  UNL1        0.0556
@<TRIPOS>BOND
     1     2     3    1
     2     3     4   ar
     3     4     5   ar
     4     5     6   ar
     5     6     7   ar
     6     7     8   ar
     7     8     9   ar
     8     9    10   ar
     9    10    11   ar
    10     8    12    1
    11    12    13    1
    12    13    14    1
    13    14     1    1
    14     1    17    1
    15    17    18    1
    16    18    19    1
    17    19    20    1
    18    20    21   ar
    19    21    22   ar
    20    22    23   ar
    21    23    26    1
    22    26    27   ar
    23    27    28   ar
    24    28    29   ar
    25    29    30   ar
    26    30    31    1
    27    23    24   ar
    28    24    25    1
    29    14    15    1
    30    15    16    1
    31    11     3   ar
    32    24    20   ar
    33    10     5   ar
    34    30    26   ar
    35    16     7    1
@<TRIPOS>MOLECULE
*****
 31 35 0 0 0
SMALL
GASTEIGER

@<TRIPOS>ATOM
      1 C         138.9143  138.3198  160.5893 C.3     1  UNL1        0.0730
      2 C         142.5452  140.4208  170.9657 C.3     1  UNL1        0.0594
      3 C         142.0586  140.1392  169.5751 C.ar    1  UNL1        0.0886
      4 N         142.8547  139.5034  168.4741 N.ar    1  UNL1       -0.2427
      5 C         141.9786  139.4153  167.2599 C.ar    1  UNL1        0.0871
      6 C         142.2260  138.8808  165.8803 C.ar    1  UNL1        0.0151
      7 C         141.1357  138.9276  164.8512 C.ar    1  UNL1       -0.0232
      8 C         139.7981  139.5089  165.2016 C.ar    1  UNL1       -0.0241
      9 C         139.5506  140.0434  166.5811 C.ar    1  UNL1        0.0035
     10 C         140.6409  139.9966  167.6103 C.ar    1  UNL1        0.0478
     11 S         140.6904  140.4440  169.0411 S.2     1  UNL1       -0.0708
     12 C         138.5836  139.6512  164.3328 C.3     1  UNL1        0.0434
     13 C         138.4068  139.2473  162.8989 C.3     1  UNL1        0.0768
     14 N         139.4009  138.6014  161.9800 N.3     1  UNL1       -0.2720
     15 C         140.8172  138.1998  162.2676 C.3     1  UNL1        0.0768
     16 C         141.5893  138.3450  163.5455 C.3     1  UNL1        0.0434
     17 C         139.1230  139.3322  159.5022 C.3     1  UNL1        0.0294
     18 C         138.4072  140.6493  159.5563 C.3     1  UNL1        0.0666
     19 S         139.1780  141.9122  159.8028 S.3     1  UNL1       -0.0756
     20 C         140.0145  142.0510  161.0401 C.ar    1  UNL1        0.1933
     21 N         139.5383  142.5390  162.3761 N.ar    1  UNL1       -0.1220
     22 N         140.7035  142.5157  163.3204 N.ar    1  UNL1       -0.1250
     23 C         141.8999  142.0133  162.5679 C.ar    1  UNL1        0.2029
     24 N         141.4741  141.7261  161.1586 N.ar    1  UNL1       -0.2860
     25 C         142.3535  141.2054  160.0606 C.3     1  UNL1        0.1341
     26 C         143.2799  141.8303  163.1266 C.ar    1  UNL1        0.1964
     27 O         144.0189  140.5302  163.2426 O.2     1  UNL1       -0.4283
     28 C         145.3589  140.8117  163.8551 C.ar    1  UNL1        0.2849
     29 N         145.4481  142.2858  164.1178 N.ar    1  UNL1       -0.2085
     30 C         144.1632  142.9154  163.6676 C.ar    1  UNL1        0.1001
     31 C         143.8216  144.3739  163.7447 C.3     1  UNL1        0.0556
@<TRIPOS>BOND
     1     2     3    1
     2     3     4   ar
     3     4     5   ar
     4     5     6   ar
     5     6     7   ar
     6     7     8   ar
     7     8     9   ar
     8     9    10   ar
     9    10    11   ar
    10     8    12    1
    11    12    13    1
    12    13    14    1
    13    14     1    1
    14     1    17    1
    15    17    18    1
    16    18    19    1
    17    19    20    1
    18    20    21   ar
    19    21    22   ar
    20    22    23   ar
    21    23    26    1
    22    26    27   ar
    23    27    28   ar
    24    28    29   ar
    25    29    30   ar
    26    30    31    1
    27    23    24   ar
    28    24    25    1
    29    14    15    1
    30    15    16    1
    31    11     3   ar
    32    24    20   ar
    33    10     5   ar
    34    30    26   ar
    35    16     7    1
@<TRIPOS>MOLECULE
*****
 31 35 0 0 0
SMALL
GASTEIGER

@<TRIPOS>ATOM
      1 C         140.1331  141.7547  170.5905 C.3     1  UNL1        0.0730
      2 C         137.9188  140.0084  159.7593 C.3     1  UNL1        0.0594
      3 C         138.2156  140.2424  161.2109 C.ar    1  UNL1        0.0886
      4 N         138.0506  139.2427  162.3169 N.ar    1  UNL1       -0.2427
      5 C         138.4624  139.8997  163.6009 C.ar    1  UNL1        0.0871
      6 C         138.5096  139.3995  165.0143 C.ar    1  UNL1        0.0151
      7 C         138.9765  140.3051  166.1152 C.ar    1  UNL1       -0.0232
      8 C         139.3960  141.7108  165.8027 C.ar    1  UNL1       -0.0241
      9 C         139.3489  142.2111  164.3894 C.ar    1  UNL1        0.0035
     10 C         138.8821  141.3055  163.2885 C.ar    1  UNL1        0.0478
     11 S         138.7295  141.5173  161.8113 S.2     1  UNL1       -0.0708
     12 C         139.8897  142.7704  166.7428 C.3     1  UNL1        0.0434
     13 C         140.0856  142.6857  168.2276 C.3     1  UNL1        0.0768
     14 N         139.8363  141.5207  169.1389 N.3     1  UNL1       -0.2720
     15 C         139.3295  140.1525  168.7906 C.3     1  UNL1        0.0768
     16 C         138.9468  139.6115  167.4449 C.3     1  UNL1        0.0434
     17 C         141.5531  141.8980  171.0522 C.3     1  UNL1        0.0294
     18 C         142.4741  142.8575  170.3587 C.3     1  UNL1        0.0666
     19 S         143.5179  142.3437  169.4119 S.3     1  UNL1       -0.0756
     20 C         143.2764  141.0778  168.6443 C.ar    1  UNL1        0.1933
     21 N         143.1550  139.7018  169.2289 N.ar    1  UNL1       -0.1220
     22 N         142.9174  138.7392  168.1033 N.ar    1  UNL1       -0.1250
     23 C         142.8919  139.5204  166.8230 C.ar    1  UNL1        0.2029
     24 N         143.1137  140.9658  167.1574 N.ar    1  UNL1       -0.2860
     25 C         143.1641  142.0999  166.1769 C.3     1  UNL1        0.1341
     26 C         142.6814  138.9555  165.4495 C.ar    1  UNL1        0.1964
     27 O         141.4499  138.2490  164.9659 O.2     1  UNL1       -0.4283
     28 C         141.6729  137.8547  163.5359 C.ar    1  UNL1        0.2849
     29 N         143.0424  138.3176  163.1357 N.ar    1  UNL1       -0.2085
     30 C         143.6657  138.9980  164.3184 C.ar    1  UNL1        0.1001
     31 C         145.0332  139.6128  164.3621 C.3     1  UNL1        0.0556
@<TRIPOS>BOND
     1     2     3    1
     2     3     4   ar
     3     4     5   ar
     4     5     6   ar
     5     6     7   ar
     6     7     8   ar
     7     8     9   ar
     8     9    10   ar
     9    10    11   ar
    10     8    12    1
    11    12    13    1
    12    13    14    1
    13    14     1    1
    14     1    17    1
    15    17    18    1
    16    18    19    1
    17    19    20    1
    18    20    21   ar
    19    21    22   ar
    20    22    23   ar
    21    23    26    1
    22    26    27   ar
    23    27    28   ar
    24    28    29   ar
    25    29    30   ar
    26    30    31    1
    27    23    24   ar
    28    24    25    1
    29    14    15    1
    30    15    16    1
    31    11     3   ar
    32    24    20   ar
    33    10     5   ar
    34    30    26   ar
    35    16     7    1
@<TRIPOS>MOLECULE
*****
 31 35 0 0 0
SMALL
GASTEIGER

@<TRIPOS>ATOM
      1 C         143.9731  138.0218  161.4692 C.3     1  UNL1        0.0730
      2 C         139.7780  142.8325  170.6630 C.3     1  UNL1        0.0594
      3 C         140.3402  142.1877  169.4308 C.ar    1  UNL1        0.0886
      4 N         141.4492  142.7309  168.5792 N.ar    1  UNL1       -0.2427
      5 C         141.6865  141.7655  167.4560 C.ar    1  UNL1        0.0871
      6 C         142.6546  141.7771  166.3103 C.ar    1  UNL1        0.0151
      7 C         142.6604  140.6488  165.3218 C.ar    1  UNL1       -0.0232
      8 C         141.6981  139.5090  165.4792 C.ar    1  UNL1       -0.0241
      9 C         140.7300  139.4974  166.6249 C.ar    1  UNL1        0.0035
     10 C         140.7242  140.6257  167.6133 C.ar    1  UNL1        0.0478
     11 S         139.8922  140.8866  168.8338 S.2     1  UNL1       -0.0708
     12 C         141.5377  138.2942  164.6139 C.3     1  UNL1        0.0434
     13 C         142.3000  137.9193  163.3776 C.3     1  UNL1        0.0768
     14 N         143.4109  138.6665  162.7013 N.3     1  UNL1       -0.2720
     15 C         144.0340  139.9733  163.0942 C.3     1  UNL1        0.0768
     16 C         143.7000  140.8554  164.2604 C.3     1  UNL1        0.0434
     17 C         143.0513  137.5274  160.3941 C.3     1  UNL1        0.0294
     18 C         142.4786  138.4896  159.3960 C.3     1  UNL1        0.0666
     19 S         141.0341  138.8849  159.4787 S.3     1  UNL1       -0.0756
     20 C         140.5421  139.6886  160.6458 C.ar    1  UNL1        0.1933
     21 N         139.5346  139.2407  161.6628 N.ar    1  UNL1       -0.1220
     22 N         139.3410  140.3566  162.6463 N.ar    1  UNL1       -0.1250
     23 C         140.2289  141.4942  162.2371 C.ar    1  UNL1        0.2029
     24 N         140.9712  141.0814  161.0007 N.ar    1  UNL1       -0.2860
     25 C         141.9676  141.9151  160.2509 C.3     1  UNL1        0.1341
     26 C         140.3527  142.8132  162.9407 C.ar    1  UNL1        0.1964
     27 O         141.6322  143.4630  163.3771 O.2     1  UNL1       -0.4283
     28 C         141.2891  144.7653  164.0376 C.ar    1  UNL1        0.2849
     29 N         139.7974  144.9204  164.0094 N.ar    1  UNL1       -0.2085
     30 C         139.2187  143.7139  163.3315 C.ar    1  UNL1        0.1001
     31 C         137.7617  143.4538  163.0872 C.3     1  UNL1        0.0556
@<TRIPOS>BOND
     1     2     3    1
     2     3     4   ar
     3     4     5   ar
     4     5     6   ar
     5     6     7   ar
     6     7     8   ar
     7     8     9   ar
     8     9    10   ar
     9    10    11   ar
    10     8    12    1
    11    12    13    1
    12    13    14    1
    13    14     1    1
    14     1    17    1
    15    17    18    1
    16    18    19    1
    17    19    20    1
    18    20    21   ar
    19    21    22   ar
    20    22    23   ar
    21    23    26    1
    22    26    27   ar
    23    27    28   ar
    24    28    29   ar
    25    29    30   ar
    26    30    31    1
    27    23    24   ar
    28    24    25    1
    29    14    15    1
    30    15    16    1
    31    11     3   ar
    32    24    20   ar
    33    10     5   ar
    34    30    26   ar
    35    16     7    1
@<TRIPOS>MOLECULE
*****
 31 35 0 0 0
SMALL
GASTEIGER

@<TRIPOS>ATOM
      1 C         138.0927  140.8921  160.6176 C.3     1  UNL1        0.0730
      2 C         141.0078  141.0037  171.4231 C.3     1  UNL1        0.0594
      3 C         140.6171  140.9887  169.9749 C.ar    1  UNL1        0.0886
      4 N         139.9164  139.8702  169.2622 N.ar    1  UNL1       -0.2427
      5 C         139.7248  140.2798  167.8320 C.ar    1  UNL1        0.0871
      6 C         139.0953  139.5810  166.6635 C.ar    1  UNL1        0.0151
      7 C         139.0481  140.2540  165.3237 C.ar    1  UNL1       -0.0232
      8 C         139.6304  141.6256  165.1525 C.ar    1  UNL1       -0.0241
      9 C         140.2599  142.3245  166.3210 C.ar    1  UNL1        0.0035
     10 C         140.3071  141.6516  167.6608 C.ar    1  UNL1        0.0478
     11 S         140.8586  142.0896  168.9852 S.2     1  UNL1       -0.0708
     12 C         139.6880  142.4693  163.9135 C.3     1  UNL1        0.0434
     13 C         139.1775  142.1494  162.5397 C.3     1  UNL1        0.0768
     14 N         138.4834  140.9071  162.0658 N.3     1  UNL1       -0.2720
     15 C         138.1283  139.6776  162.8484 C.3     1  UNL1        0.0768
     16 C         138.3796  139.3870  164.2983 C.3     1  UNL1        0.0434
     17 C         138.5690  141.9798  159.7009 C.3     1  UNL1        0.0294
     18 C         139.3286  141.6317  158.4552 C.3     1  UNL1        0.0666
     19 S         140.6105  142.3418  158.1353 S.3     1  UNL1       -0.0756
     20 C         141.4582  142.8946  159.2426 C.ar    1  UNL1        0.1933
     21 N         141.6087  144.3440  159.5982 N.ar    1  UNL1       -0.1220
     22 N         142.5476  144.4403  160.7640 N.ar    1  UNL1       -0.1250
     23 C         142.9775  143.0502  161.1288 C.ar    1  UNL1        0.2029
     24 N         142.3041  142.0949  160.1886 N.ar    1  UNL1       -0.2860
     25 C         142.4510  140.6022  160.1935 C.3     1  UNL1        0.1341
     26 C         143.9159  142.6804  162.2391 C.ar    1  UNL1        0.1964
     27 O         145.0688  141.7263  162.1380 O.2     1  UNL1       -0.4283
     28 C         145.7316  141.6560  163.4818 C.ar    1  UNL1        0.2849
     29 N         144.9882  142.5667  164.4134 N.ar    1  UNL1       -0.2085
     30 C         143.8660  143.1998  163.6454 C.ar    1  UNL1        0.1001
     31 C         142.8691  144.1803  164.1885 C.3     1  UNL1        0.0556
@<TRIPOS>BOND
     1     2     3    1
     2     3     4   ar
     3     4     5   ar
     4     5     6   ar
     5     6     7   ar
     6     7     8   ar
     7     8     9   ar
     8     9    10   ar
     9    10    11   ar
    10     8    12    1
    11    12    13    1
    12    13    14    1
    13    14     1    1
    14     1    17    1
    15    17    18    1
    16    18    19    1
    17    19    20    1
    18    20    21   ar
    19    21    22   ar
    20    22    23   ar
    21    23    26    1
    22    26    27   ar
    23    27    28   ar
    24    28    29   ar
    25    29    30   ar
    26    30    31    1
    27    23    24   ar
    28    24    25    1
    29    14    15    1
    30    15    16    1
    31    11     3   ar
    32    24    20   ar
    33    10     5   ar
    34    30    26   ar
    35    16     7    1
