@<TRIPOS>MOLECULE
*****
 23 25 0 0 0
SMALL
GASTEIGER

@<TRIPOS>ATOM
      1 N         140.6599  141.1810  168.8392 N.am    1  UNL1       -0.2752
      2 C         141.6808  141.6109  167.8279 C.3     1  UNL1        0.1206
      3 C         141.5923  141.1145  166.4151 C.3     1  UNL1        0.1141
      4 C         141.5037  140.6182  165.0024 C.3     1  UNL1        0.0463
      5 C         142.5246  141.0481  163.9911 C.3     1  UNL1        0.0746
      6 N         143.6341  141.9744  164.3924 N.3     1  UNL1       -0.2722
      7 C         143.7226  142.4708  165.8051 C.3     1  UNL1        0.0746
      8 C         142.7017  142.0409  166.8164 C.3     1  UNL1        0.0463
      9 O         140.4828  140.1882  166.0138 O.3     1  UNL1       -0.3501
     10 C         139.4619  139.7583  167.0252 C.3     1  UNL1        0.1909
     11 C         138.3525  138.8319  166.6239 C.3     1  UNL1        0.0420
     12 C         139.5505  140.2547  168.4379 C.2     1  UNL1        0.2529
     13 O         138.5295  139.8247  169.4493 O.2     1  UNL1       -0.2722
     14 C         139.9744  142.8924  170.6699 C.3     1  UNL1        0.0233
     15 C         140.7484  141.6774  170.2520 C.3     1  UNL1        0.0936
     16 C         144.6550  142.4044  163.3810 C.3     1  UNL1        0.0768
     17 C         144.4742  143.6923  162.6336 C.3     1  UNL1        0.0437
     18 C         143.1056  144.2885  162.4867 C.ar    1  UNL1       -0.0208
     19 C         142.3095  144.0408  161.2398 C.ar    1  UNL1       -0.0042
     20 C         140.9410  144.6370  161.0930 C.ar    1  UNL1       -0.0003
     21 C         140.3685  145.4808  162.1931 C.ar    1  UNL1       -0.0000
     22 C         141.1645  145.7284  163.4400 C.ar    1  UNL1       -0.0003
     23 C         142.5331  145.1323  163.5869 C.ar    1  UNL1       -0.0042
@<TRIPOS>BOND
     1    14    15    1
     2    15     1    1
     3     1     2    1
     4     2     3    1
     5     3     4    1
     6     4     5    1
     7     5     6    1
     8     6    16    1
     9    16    17    1
    10    17    18    1
    11    18    19   ar
    12    19    20   ar
    13    20    21   ar
    14    21    22   ar
    15    22    23   ar
    16     6     7    1
    17     7     8    1
    18     3     9    1
    19     9    10    1
    20    10    11    1
    21    10    12    1
    22    12    13    2
    23    12     1   am
    24     8     3    1
    25    23    18   ar
@<TRIPOS>MOLECULE
*****
 23 25 0 0 0
SMALL
GASTEIGER

@<TRIPOS>ATOM
      1 N         140.9640  140.7011  169.5745 N.am    1  UNL1       -0.2752
      2 C         140.8769  140.6101  168.0798 C.3     1  UNL1        0.1206
      3 C         140.5586  141.8329  167.2712 C.3     1  UNL1        0.1141
      4 C         140.2404  143.0555  166.4627 C.3     1  UNL1        0.0463
      5 C         140.1533  142.9645  164.9680 C.3     1  UNL1        0.0746
      6 N         140.3844  141.6508  164.2819 N.3     1  UNL1       -0.2722
      7 C         140.7027  140.4282  165.0904 C.3     1  UNL1        0.0746
      8 C         140.7898  140.5192  166.5850 C.3     1  UNL1        0.0463
      9 O         140.3275  143.1465  167.9573 O.3     1  UNL1       -0.3501
     10 C         140.4146  143.2375  169.4521 C.3     1  UNL1        0.1909
     11 C         140.1834  144.5512  170.1383 C.3     1  UNL1        0.0420
     12 C         140.7328  142.0148  170.2606 C.2     1  UNL1        0.2529
     13 O         140.8199  142.1058  171.7554 O.2     1  UNL1       -0.2722
     14 C         142.5342  138.7004  170.1051 C.3     1  UNL1        0.0233
     15 C         141.2822  139.4784  170.3831 C.3     1  UNL1        0.0936
     16 C         140.2973  141.5599  162.7871 C.3     1  UNL1        0.0768
     17 C         141.5477  141.5968  161.9593 C.3     1  UNL1        0.0437
     18 C         142.8904  141.5418  162.6259 C.ar    1  UNL1       -0.0208
     19 C         143.5433  142.8052  163.1027 C.ar    1  UNL1       -0.0042
     20 C         144.8859  142.7502  163.7692 C.ar    1  UNL1       -0.0003
     21 C         145.5756  141.4318  163.9589 C.ar    1  UNL1       -0.0000
     22 C         144.9227  140.1683  163.4821 C.ar    1  UNL1       -0.0003
     23 C         143.5801  140.2234  162.8156 C.ar    1  UNL1       -0.0042
@<TRIPOS>BOND
     1    14    15    1
     2    15     1    1
     3     1     2    1
     4     2     3    1
     5     3     4    1
     6     4     5    1
     7     5     6    1
     8     6    16    1
     9    16    17    1
    10    17    18    1
    11    18    19   ar
    12    19    20   ar
    13    20    21   ar
    14    21    22   ar
    15    22    23   ar
    16     6     7    1
    17     7     8    1
    18     3     9    1
    19     9    10    1
    20    10    11    1
    21    10    12    1
    22    12    13    2
    23    12     1   am
    24     8     3    1
    25    23    18   ar
@<TRIPOS>MOLECULE
*****
 23 25 0 0 0
SMALL
GASTEIGER

@<TRIPOS>ATOM
      1 N         141.8637  140.7743  169.4342 N.am    1  UNL1       -0.2752
      2 C         141.8249  140.5850  167.9467 C.3     1  UNL1        0.1206
      3 C         140.5341  140.2318  167.2690 C.3     1  UNL1        0.1141
      4 C         139.2434  139.8787  166.5914 C.3     1  UNL1        0.0463
      5 C         139.2046  139.6894  165.1039 C.3     1  UNL1        0.0746
      6 N         140.4565  139.8532  164.2941 N.3     1  UNL1       -0.2722
      7 C         141.7472  140.2063  164.9717 C.3     1  UNL1        0.0746
      8 C         141.7861  140.3956  166.4592 C.3     1  UNL1        0.0463
      9 O         139.2822  140.0680  168.0789 O.3     1  UNL1       -0.3501
     10 C         139.3211  140.2574  169.5664 C.3     1  UNL1        0.1909
     11 C         138.0691  140.0936  170.3762 C.3     1  UNL1        0.0420
     12 C         140.6118  140.6105  170.2440 C.2     1  UNL1        0.2529
     13 O         140.6507  140.7998  171.7316 O.2     1  UNL1       -0.2722
     14 C         143.8760  142.3889  169.7404 C.3     1  UNL1        0.0233
     15 C         143.1545  141.1274  170.1119 C.3     1  UNL1        0.0936
     16 C         140.4176  139.6639  162.8065 C.3     1  UNL1        0.0768
     17 C         140.3381  140.8567  161.9005 C.3     1  UNL1        0.0437
     18 C         139.7822  142.1522  162.4131 C.ar    1  UNL1       -0.0208
     19 C         138.2985  142.3696  162.4495 C.ar    1  UNL1       -0.0042
     20 C         137.7427  143.6650  162.9620 C.ar    1  UNL1       -0.0003
     21 C         138.6706  144.7431  163.4383 C.ar    1  UNL1       -0.0000
     22 C         140.1543  144.5257  163.4019 C.ar    1  UNL1       -0.0003
     23 C         140.7101  143.2303  162.8893 C.ar    1  UNL1       -0.0042
@<TRIPOS>BOND
     1    14    15    1
     2    15     1    1
     3     1     2    1
     4     2     3    1
     5     3     4    1
     6     4     5    1
     7     5     6    1
     8     6    16    1
     9    16    17    1
    10    17    18    1
    11    18    19   ar
    12    19    20   ar
    13    20    21   ar
    14    21    22   ar
    15    22    23   ar
    16     6     7    1
    17     7     8    1
    18     3     9    1
    19     9    10    1
    20    10    11    1
    21    10    12    1
    22    12    13    2
    23    12     1   am
    24     8     3    1
    25    23    18   ar
@<TRIPOS>MOLECULE
*****
 23 25 0 0 0
SMALL
GASTEIGER

@<TRIPOS>ATOM
      1 N         139.2402  139.9312  167.8510 N.am    1  UNL1       -0.2752
      2 C         140.2056  140.3764  166.7928 C.3     1  UNL1        0.1206
      3 C         141.3687  141.2503  167.1585 C.3     1  UNL1        0.1141
      4 C         142.5318  142.1240  167.5241 C.3     1  UNL1        0.0463
      5 C         143.4972  142.5692  166.4660 C.3     1  UNL1        0.0746
      6 N         143.2996  142.1406  165.0422 N.3     1  UNL1       -0.2722
      7 C         142.1365  141.2668  164.6765 C.3     1  UNL1        0.0746
      8 C         141.1711  140.8216  165.7347 C.3     1  UNL1        0.0463
      9 O         141.5664  141.6789  168.5823 O.3     1  UNL1       -0.3501
     10 C         140.6009  141.2336  169.6405 C.3     1  UNL1        0.1909
     11 C         140.7985  141.6622  171.0643 C.3     1  UNL1        0.0420
     12 C         139.4378  140.3599  169.2748 C.2     1  UNL1        0.2529
     13 O         138.4723  139.9146  170.3330 O.2     1  UNL1       -0.2722
     14 C         138.1034  138.2687  166.2097 C.3     1  UNL1        0.0233
     15 C         138.0770  139.0574  167.4853 C.3     1  UNL1        0.0936
     16 C         144.2651  142.5858  163.9840 C.3     1  UNL1        0.0768
     17 C         144.1409  143.9547  163.3834 C.3     1  UNL1        0.0437
     18 C         142.8637  144.3665  162.7131 C.ar    1  UNL1       -0.0208
     19 C         142.5706  143.9122  161.3140 C.ar    1  UNL1       -0.0042
     20 C         141.2934  144.3240  160.6438 C.ar    1  UNL1       -0.0003
     21 C         140.3094  145.1903  161.3727 C.ar    1  UNL1       -0.0000
     22 C         140.6025  145.6446  162.7718 C.ar    1  UNL1       -0.0003
     23 C         141.8796  145.2328  163.4420 C.ar    1  UNL1       -0.0042
@<TRIPOS>BOND
     1    14    15    1
     2    15     1    1
     3     1     2    1
     4     2     3    1
     5     3     4    1
     6     4     5    1
     7     5     6    1
     8     6    16    1
     9    16    17    1
    10    17    18    1
    11    18    19   ar
    12    19    20   ar
    13    20    21   ar
    14    21    22   ar
    15    22    23   ar
    16     6     7    1
    17     7     8    1
    18     3     9    1
    19     9    10    1
    20    10    11    1
    21    10    12    1
    22    12    13    2
    23    12     1   am
    24     8     3    1
    25    23    18   ar
@<TRIPOS>MOLECULE
*****
 23 25 0 0 0
SMALL
GASTEIGER

@<TRIPOS>ATOM
      1 N         140.2158  144.9137  162.5191 N.am    1  UNL1       -0.2752
      2 C         141.2645  143.9985  163.0781 C.3     1  UNL1        0.1206
      3 C         142.4200  143.5706  162.2226 C.3     1  UNL1        0.1141
      4 C         143.5754  143.1429  161.3671 C.3     1  UNL1        0.0463
      5 C         144.6241  142.2277  161.9261 C.3     1  UNL1        0.0746
      6 N         144.5174  141.7403  163.3407 N.3     1  UNL1       -0.2722
      7 C         143.3620  142.1680  164.1962 C.3     1  UNL1        0.0746
      8 C         142.3133  143.0832  163.6372 C.3     1  UNL1        0.0463
      9 O         142.5267  144.0580  160.8080 O.3     1  UNL1       -0.3501
     10 C         141.4779  144.9733  160.2490 C.3     1  UNL1        0.1909
     11 C         141.5846  145.4607  158.8344 C.3     1  UNL1        0.0420
     12 C         140.3225  145.4011  161.1045 C.2     1  UNL1        0.2529
     13 O         139.2737  146.3163  160.5454 O.2     1  UNL1       -0.2722
     14 C         138.8804  144.7512  164.7418 C.3     1  UNL1        0.0233
     15 C         139.0603  145.3415  163.3746 C.3     1  UNL1        0.0936
     16 C         145.5662  140.8250  163.8998 C.3     1  UNL1        0.0768
     17 C         145.1806  139.4726  164.4215 C.3     1  UNL1        0.0437
     18 C         143.8959  138.8366  163.9798 C.ar    1  UNL1       -0.0208
     19 C         143.6650  138.5430  162.5270 C.ar    1  UNL1       -0.0042
     20 C         142.3803  137.9071  162.0854 C.ar    1  UNL1       -0.0003
     21 C         141.3265  137.5648  163.0964 C.ar    1  UNL1       -0.0000
     22 C         141.5573  137.8584  164.5492 C.ar    1  UNL1       -0.0003
     23 C         142.8420  138.4943  164.9908 C.ar    1  UNL1       -0.0042
@<TRIPOS>BOND
     1    14    15    1
     2    15     1    1
     3     1     2    1
     4     2     3    1
     5     3     4    1
     6     4     5    1
     7     5     6    1
     8     6    16    1
     9    16    17    1
    10    17    18    1
    11    18    19   ar
    12    19    20   ar
    13    20    21   ar
    14    21    22   ar
    15    22    23   ar
    16     6     7    1
    17     7     8    1
    18     3     9    1
    19     9    10    1
    20    10    11    1
    21    10    12    1
    22    12    13    2
    23    12     1   am
    24     8     3    1
    25    23    18   ar
@<TRIPOS>MOLECULE
*****
 23 25 0 0 0
SMALL
GASTEIGER

@<TRIPOS>ATOM
      1 N         140.9019  140.0807  168.1941 N.am    1  UNL1       -0.2752
      2 C         140.0261  140.4050  167.0203 C.3     1  UNL1        0.1206
      3 C         140.4439  139.9990  165.6380 C.3     1  UNL1        0.1141
      4 C         140.8617  139.5930  164.2558 C.3     1  UNL1        0.0463
      5 C         139.9860  139.9172  163.0820 C.3     1  UNL1        0.0746
      6 N         138.6924  140.6474  163.2904 N.3     1  UNL1       -0.2722
      7 C         138.2746  141.0534  164.6726 C.3     1  UNL1        0.0746
      8 C         139.1503  140.7292  165.8464 C.3     1  UNL1        0.0463
      9 O         141.7375  139.2688  165.4296 O.3     1  UNL1       -0.3501
     10 C         142.6133  138.9445  166.6035 C.3     1  UNL1        0.1909
     11 C         143.9069  138.2143  166.3951 C.3     1  UNL1        0.0420
     12 C         142.1954  139.3505  167.9857 C.2     1  UNL1        0.2529
     13 O         143.0712  139.0263  169.1596 O.2     1  UNL1       -0.2722
     14 C         139.0320  140.4830  169.9524 C.3     1  UNL1        0.0233
     15 C         140.4841  140.4867  169.5764 C.3     1  UNL1        0.0936
     16 C         137.8166  140.9717  162.1165 C.3     1  UNL1        0.0768
     17 C         138.0493  142.2286  161.3317 C.3     1  UNL1        0.0437
     18 C         139.0511  143.2372  161.8105 C.ar    1  UNL1       -0.0208
     19 C         138.6571  144.2558  162.8387 C.ar    1  UNL1       -0.0042
     20 C         139.6589  145.2643  163.3175 C.ar    1  UNL1       -0.0003
     21 C         141.0547  145.2542  162.7681 C.ar    1  UNL1       -0.0000
     22 C         141.4486  144.2356  161.7399 C.ar    1  UNL1       -0.0003
     23 C         140.4468  143.2271  161.2611 C.ar    1  UNL1       -0.0042
@<TRIPOS>BOND
     1    14    15    1
     2    15     1    1
     3     1     2    1
     4     2     3    1
     5     3     4    1
     6     4     5    1
     7     5     6    1
     8     6    16    1
     9    16    17    1
    10    17    18    1
    11    18    19   ar
    12    19    20   ar
    13    20    21   ar
    14    21    22   ar
    15    22    23   ar
    16     6     7    1
    17     7     8    1
    18     3     9    1
    19     9    10    1
    20    10    11    1
    21    10    12    1
    22    12    13    2
    23    12     1   am
    24     8     3    1
    25    23    18   ar
@<TRIPOS>MOLECULE
*****
 23 25 0 0 0
SMALL
GASTEIGER

@<TRIPOS>ATOM
      1 N         139.3758  138.9971  166.0482 N.am    1  UNL1       -0.2752
      2 C         140.5642  139.6380  165.3949 C.3     1  UNL1        0.1206
      3 C         141.3651  140.6659  166.1379 C.3     1  UNL1        0.1141
      4 C         142.1659  141.6937  166.8810 C.3     1  UNL1        0.0463
      5 C         143.3542  142.3347  166.2276 C.3     1  UNL1        0.0746
      6 N         143.7418  141.9477  164.8312 N.3     1  UNL1       -0.2722
      7 C         142.9410  140.9199  164.0881 C.3     1  UNL1        0.0746
      8 C         141.7526  140.2790  164.7415 C.3     1  UNL1        0.0463
      9 O         140.9775  141.0528  167.5344 O.3     1  UNL1       -0.3501
     10 C         139.7891  140.4118  168.1878 C.3     1  UNL1        0.1909
     11 C         139.4015  140.7988  169.5842 C.3     1  UNL1        0.0420
     12 C         138.9882  139.3840  167.4447 C.2     1  UNL1        0.2529
     13 O         137.7998  138.7430  168.0981 O.2     1  UNL1       -0.2722
     14 C         138.9128  137.6409  163.8811 C.3     1  UNL1        0.0233
     15 C         138.5749  137.9692  165.3052 C.3     1  UNL1        0.0936
     16 C         144.9302  142.5887  164.1778 C.3     1  UNL1        0.0768
     17 C         144.7416  143.4755  162.9828 C.3     1  UNL1        0.0437
     18 C         143.4008  144.0897  162.7087 C.ar    1  UNL1       -0.0208
     19 C         142.6707  143.7615  161.4402 C.ar    1  UNL1       -0.0042
     20 C         141.3300  144.3756  161.1662 C.ar    1  UNL1       -0.0003
     21 C         140.7192  145.3179  162.1607 C.ar    1  UNL1       -0.0000
     22 C         141.4493  145.6461  163.4292 C.ar    1  UNL1       -0.0003
     23 C         142.7900  145.0319  163.7033 C.ar    1  UNL1       -0.0042
@<TRIPOS>BOND
     1    14    15    1
     2    15     1    1
     3     1     2    1
     4     2     3    1
     5     3     4    1
     6     4     5    1
     7     5     6    1
     8     6    16    1
     9    16    17    1
    10    17    18    1
    11    18    19   ar
    12    19    20   ar
    13    20    21   ar
    14    21    22   ar
    15    22    23   ar
    16     6     7    1
    17     7     8    1
    18     3     9    1
    19     9    10    1
    20    10    11    1
    21    10    12    1
    22    12    13    2
    23    12     1   am
    24     8     3    1
    25    23    18   ar
@<TRIPOS>MOLECULE
*****
 23 25 0 0 0
SMALL
GASTEIGER

@<TRIPOS>ATOM
      1 N         139.1566  139.4507  166.9371 N.am    1  UNL1       -0.2752
      2 C         140.1050  139.5756  165.7817 C.3     1  UNL1        0.1206
      3 C         141.4898  140.1082  166.0023 C.3     1  UNL1        0.1141
      4 C         142.8746  140.6409  166.2229 C.3     1  UNL1        0.0463
      5 C         143.8230  140.7657  165.0676 C.3     1  UNL1        0.0746
      6 N         143.3866  140.3580  163.6916 N.3     1  UNL1       -0.2722
      7 C         142.0018  139.8254  163.4710 C.3     1  UNL1        0.0746
      8 C         141.0534  139.7005  164.6263 C.3     1  UNL1        0.0463
      9 O         141.9262  140.5160  167.3783 O.3     1  UNL1       -0.3501
     10 C         140.9777  140.3911  168.5337 C.3     1  UNL1        0.1909
     11 C         141.4140  140.7989  169.9097 C.3     1  UNL1        0.0420
     12 C         139.5929  139.8585  168.3131 C.2     1  UNL1        0.2529
     13 O         138.6444  139.7336  169.4685 O.2     1  UNL1       -0.2722
     14 C         137.4879  137.4594  166.9207 C.3     1  UNL1        0.0233
     15 C         137.7717  138.9181  166.7165 C.3     1  UNL1        0.0936
     16 C         144.3351  140.4829  162.5362 C.3     1  UNL1        0.0768
     17 C         144.4127  141.7670  161.7650 C.3     1  UNL1        0.0437
     18 C         143.6405  142.9672  162.2270 C.ar    1  UNL1       -0.0208
     19 C         144.2619  143.9329  163.1920 C.ar    1  UNL1       -0.0042
     20 C         143.4898  145.1330  163.6539 C.ar    1  UNL1       -0.0003
     21 C         142.0962  145.3675  163.1509 C.ar    1  UNL1       -0.0000
     22 C         141.4748  144.4018  162.1860 C.ar    1  UNL1       -0.0003
     23 C         142.2469  143.2016  161.7240 C.ar    1  UNL1       -0.0042
@<TRIPOS>BOND
     1    14    15    1
     2    15     1    1
     3     1     2    1
     4     2     3    1
     5     3     4    1
     6     4     5    1
     7     5     6    1
     8     6    16    1
     9    16    17    1
    10    17    18    1
    11    18    19   ar
    12    19    20   ar
    13    20    21   ar
    14    21    22   ar
    15    22    23   ar
    16     6     7    1
    17     7     8    1
    18     3     9    1
    19     9    10    1
    20    10    11    1
    21    10    12    1
    22    12    13    2
    23    12     1   am
    24     8     3    1
    25    23    18   ar
@<TRIPOS>MOLECULE
*****
 23 25 0 0 0
SMALL
GASTEIGER

@<TRIPOS>ATOM
      1 N         141.5609  140.6613  168.7392 N.am    1  UNL1       -0.2752
      2 C         140.9727  141.6278  167.7544 C.3     1  UNL1        0.1206
      3 C         141.3010  141.5054  166.2958 C.3     1  UNL1        0.1141
      4 C         141.6293  141.3829  164.8373 C.3     1  UNL1        0.0463
      5 C         141.0411  142.3494  163.8525 C.3     1  UNL1        0.0746
      6 N         140.1247  143.4383  164.3261 N.3     1  UNL1       -0.2722
      7 C         139.7964  143.5608  165.7846 C.3     1  UNL1        0.0746
      8 C         140.3845  142.5943  166.7694 C.3     1  UNL1        0.0463
      9 O         142.2175  140.4165  165.8222 O.3     1  UNL1       -0.3501
     10 C         142.8057  139.4500  166.8071 C.3     1  UNL1        0.1909
     11 C         143.7222  138.3611  166.3334 C.3     1  UNL1        0.0420
     12 C         142.4774  139.5724  168.2655 C.2     1  UNL1        0.2529
     13 O         143.0656  138.6059  169.2505 O.2     1  UNL1       -0.2722
     14 C         140.0925  140.0006  170.7782 C.3     1  UNL1        0.0233
     15 C         141.2326  140.7838  170.1977 C.3     1  UNL1        0.0936
     16 C         139.5365  144.4048  163.3412 C.3     1  UNL1        0.0768
     17 C         138.2780  144.0526  162.6049 C.3     1  UNL1        0.0437
     18 C         138.1477  142.7145  161.9398 C.ar    1  UNL1       -0.0208
     19 C         137.6529  141.5335  162.7211 C.ar    1  UNL1       -0.0042
     20 C         137.5226  140.1955  162.0559 C.ar    1  UNL1       -0.0003
     21 C         137.8871  140.0383  160.6094 C.ar    1  UNL1       -0.0000
     22 C         138.3819  141.2192  159.8280 C.ar    1  UNL1       -0.0003
     23 C         138.5122  142.5573  160.4932 C.ar    1  UNL1       -0.0042
@<TRIPOS>BOND
     1    14    15    1
     2    15     1    1
     3     1     2    1
     4     2     3    1
     5     3     4    1
     6     4     5    1
     7     5     6    1
     8     6    16    1
     9    16    17    1
    10    17    18    1
    11    18    19   ar
    12    19    20   ar
    13    20    21   ar
    14    21    22   ar
    15    22    23   ar
    16     6     7    1
    17     7     8    1
    18     3     9    1
    19     9    10    1
    20    10    11    1
    21    10    12    1
    22    12    13    2
    23    12     1   am
    24     8     3    1
    25    23    18   ar
