@<TRIPOS>MOLECULE
*****
 30 33 0 0 0
SMALL
GASTEIGER

@<TRIPOS>ATOM
      1 N         144.5114  140.3549  162.1436 N.3     1  UNL1       -0.2660
      2 C         144.3872  141.5154  161.2013 C.3     1  UNL1        0.0942
      3 C         143.8072  141.3117  159.8330 C.3     1  UNL1        0.1112
      4 N         143.3516  139.9476  159.4070 N.am    1  UNL1       -0.2695
      5 C         142.7717  139.7440  158.0387 C.2     1  UNL1        0.3031
      6 O         142.6475  140.9044  157.0965 O.2     1  UNL1       -0.2649
      7 C         143.4759  138.7871  160.3492 C.3     1  UNL1        0.1112
      8 C         144.0558  138.9907  161.7175 C.3     1  UNL1        0.0942
      9 C         142.3161  138.3798  157.6126 C.2     1  UNL1        0.3034
     10 O         140.9199  137.9255  157.9198 O.2     1  UNL1       -0.2648
     11 N         143.2565  137.4700  156.8793 N.am    1  UNL1       -0.2766
     12 H         144.1729  137.7682  156.6777 H       1  UNL1        0.1553
     13 C         142.8009  136.1058  156.4532 C.ar    1  UNL1        0.0508
     14 C         141.7308  135.9639  155.4117 C.ar    1  UNL1        0.0162
     15 C         141.2752  134.5997  154.9857 C.ar    1  UNL1        0.0185
     16 C         141.8896  133.3776  155.6011 C.ar    1  UNL1        0.0601
     17 C         142.9597  133.5195  156.6426 C.ar    1  UNL1        0.0185
     18 C         143.3775  132.1433  157.0685 C.ar    1  UNL1        0.0201
     19 C         142.5657  131.1507  156.2901 C.ar    1  UNL1        0.0760
     20 N         141.6461  131.9135  155.3833 N.ar    1  UNL1       -0.3240
     21 C         140.6567  131.3171  154.4265 C.3     1  UNL1        0.1305
     22 C         143.4153  134.8837  157.0687 C.ar    1  UNL1        0.0162
     23 C         145.0913  140.5585  163.5119 C.3     1  UNL1        0.0992
     24 C         141.6366  139.8645  168.3681 C.3     1  UNL1        0.0310
     25 C         142.5003  140.0380  167.1540 C.ar    1  UNL1       -0.0219
     26 C         143.1424  138.8433  166.5134 C.ar    1  UNL1       -0.0045
     27 C         144.0060  139.0168  165.2994 C.ar    1  UNL1       -0.0032
     28 C         144.2276  140.3850  164.7259 C.ar    1  UNL1       -0.0062
     29 C         143.5855  141.5797  165.3665 C.ar    1  UNL1       -0.0032
     30 C         142.7219  141.4062  166.5806 C.ar    1  UNL1       -0.0045
@<TRIPOS>BOND
     1    24    25    1
     2    25    26   ar
     3    26    27   ar
     4    27    28   ar
     5    28    23    1
     6    23     1    1
     7     1     2    1
     8     2     3    1
     9     3     4    1
    10     4     5   am
    11     5     6    2
    12     5     9    1
    13     9    10    2
    14     9    11   am
    15    11    13    1
    16    13    14   ar
    17    14    15   ar
    18    15    16   ar
    19    16    17   ar
    20    17    18   ar
    21    18    19   ar
    22    19    20   ar
    23    20    21    1
    24    17    22   ar
    25     4     7    1
    26     7     8    1
    27    28    29   ar
    28    29    30   ar
    29    30    25   ar
    30     8     1    1
    31    22    13   ar
    32    20    16   ar
    33    11    12    1
@<TRIPOS>MOLECULE
*****
 30 33 0 0 0
SMALL
GASTEIGER

@<TRIPOS>ATOM
      1 N         142.0074  137.9880  158.4546 N.3     1  UNL1       -0.2660
      2 C         140.5549  138.2279  158.1669 C.3     1  UNL1        0.0942
      3 C         139.5946  138.4575  159.2961 C.3     1  UNL1        0.1112
      4 N         140.0867  138.4471  160.7130 N.am    1  UNL1       -0.2695
      5 C         139.1264  138.6767  161.8422 C.2     1  UNL1        0.3031
      6 O         137.6739  138.9166  161.5544 O.2     1  UNL1       -0.2649
      7 C         141.5392  138.2072  161.0007 C.3     1  UNL1        0.1112
      8 C         142.4995  137.9777  159.8716 C.3     1  UNL1        0.0942
      9 C         139.6185  138.6664  163.2591 C.2     1  UNL1        0.3034
     10 O         139.8629  137.3622  163.9587 O.2     1  UNL1       -0.2648
     11 N         139.8662  139.9602  163.9765 N.am    1  UNL1       -0.2766
     12 H         139.7058  140.8161  163.5174 H       1  UNL1        0.1553
     13 C         140.3583  139.9498  165.3935 C.ar    1  UNL1        0.0508
     14 C         141.8193  139.7652  165.6787 C.ar    1  UNL1        0.0162
     15 C         142.3113  139.7548  167.0957 C.ar    1  UNL1        0.0185
     16 C         141.3424  139.9292  168.2274 C.ar    1  UNL1        0.0601
     17 C         139.8814  140.1138  167.9422 C.ar    1  UNL1        0.0185
     18 C         139.1682  140.2609  169.2535 C.ar    1  UNL1        0.0201
     19 C         140.1883  140.1672  170.3492 C.ar    1  UNL1        0.0760
     20 N         141.5321  139.9621  169.7150 N.ar    1  UNL1       -0.3240
     21 C         142.8365  139.8158  170.4410 C.3     1  UNL1        0.1305
     22 C         139.3894  140.1241  166.5252 C.ar    1  UNL1        0.0162
     23 C         142.9677  137.7585  157.3254 C.3     1  UNL1        0.0992
     24 C         142.8178  132.6023  154.2610 C.3     1  UNL1        0.0310
     25 C         142.8553  133.8913  155.0271 C.ar    1  UNL1       -0.0219
     26 C         143.1968  133.8861  156.4877 C.ar    1  UNL1       -0.0045
     27 C         143.2342  135.1751  157.2538 C.ar    1  UNL1       -0.0032
     28 C         142.9302  136.4694  156.5593 C.ar    1  UNL1       -0.0062
     29 C         142.5888  136.4747  155.0987 C.ar    1  UNL1       -0.0032
     30 C         142.5513  135.1856  154.3326 C.ar    1  UNL1       -0.0045
@<TRIPOS>BOND
     1    24    25    1
     2    25    26   ar
     3    26    27   ar
     4    27    28   ar
     5    28    23    1
     6    23     1    1
     7     1     2    1
     8     2     3    1
     9     3     4    1
    10     4     5   am
    11     5     6    2
    12     5     9    1
    13     9    10    2
    14     9    11   am
    15    11    13    1
    16    13    14   ar
    17    14    15   ar
    18    15    16   ar
    19    16    17   ar
    20    17    18   ar
    21    18    19   ar
    22    19    20   ar
    23    20    21    1
    24    17    22   ar
    25     4     7    1
    26     7     8    1
    27    28    29   ar
    28    29    30   ar
    29    30    25   ar
    30     8     1    1
    31    22    13   ar
    32    20    16   ar
    33    11    12    1
@<TRIPOS>MOLECULE
*****
 30 33 0 0 0
SMALL
GASTEIGER

@<TRIPOS>ATOM
      1 N         142.6416  138.9053  162.0417 N.3     1  UNL1       -0.2660
      2 C         142.1524  140.0951  161.2703 C.3     1  UNL1        0.0942
      3 C         142.0781  140.0394  159.7731 C.3     1  UNL1        0.1112
      4 N         142.4929  138.7939  159.0474 N.am    1  UNL1       -0.2695
      5 C         142.4185  138.7382  157.5503 C.2     1  UNL1        0.3031
      6 O         141.9293  139.9280  156.7789 O.2     1  UNL1       -0.2649
      7 C         142.9821  137.6041  159.8188 C.3     1  UNL1        0.1112
      8 C         143.0565  137.6598  161.3159 C.3     1  UNL1        0.0942
      9 C         142.8334  137.4927  156.8246 C.2     1  UNL1        0.3034
     10 O         144.1691  137.4304  156.1449 O.2     1  UNL1       -0.2648
     11 N         141.9125  136.3096  156.7785 N.am    1  UNL1       -0.2766
     12 H         141.0358  136.3505  157.2246 H       1  UNL1        0.1553
     13 C         142.3274  135.0641  156.0527 C.ar    1  UNL1        0.0508
     14 C         141.8325  134.8074  154.6602 C.ar    1  UNL1        0.0162
     15 C         142.2473  133.5619  153.9345 C.ar    1  UNL1        0.0185
     16 C         143.1571  132.5731  154.6014 C.ar    1  UNL1        0.0601
     17 C         143.6519  132.8298  155.9939 C.ar    1  UNL1        0.0185
     18 C         144.5322  131.6823  156.3918 C.ar    1  UNL1        0.0201
     19 C         144.5813  130.7164  155.2452 C.ar    1  UNL1        0.0760
     20 N         143.7314  131.2669  154.1386 N.ar    1  UNL1       -0.3240
     21 C         143.4971  130.6242  152.8037 C.3     1  UNL1        0.1305
     22 C         143.2371  134.0753  156.7196 C.ar    1  UNL1        0.0162
     23 C         142.7160  138.9610  163.5387 C.3     1  UNL1        0.0992
     24 C         137.7009  138.5639  166.8085 C.3     1  UNL1        0.0310
     25 C         138.9547  138.6632  165.9911 C.ar    1  UNL1       -0.0219
     26 C         139.8635  139.8456  166.1523 C.ar    1  UNL1       -0.0045
     27 C         141.1172  139.9448  165.3348 C.ar    1  UNL1       -0.0032
     28 C         141.4622  138.8617  164.3562 C.ar    1  UNL1       -0.0062
     29 C         140.5534  137.6794  164.1950 C.ar    1  UNL1       -0.0032
     30 C         139.2997  137.5801  165.0124 C.ar    1  UNL1       -0.0045
@<TRIPOS>BOND
     1    24    25    1
     2    25    26   ar
     3    26    27   ar
     4    27    28   ar
     5    28    23    1
     6    23     1    1
     7     1     2    1
     8     2     3    1
     9     3     4    1
    10     4     5   am
    11     5     6    2
    12     5     9    1
    13     9    10    2
    14     9    11   am
    15    11    13    1
    16    13    14   ar
    17    14    15   ar
    18    15    16   ar
    19    16    17   ar
    20    17    18   ar
    21    18    19   ar
    22    19    20   ar
    23    20    21    1
    24    17    22   ar
    25     4     7    1
    26     7     8    1
    27    28    29   ar
    28    29    30   ar
    29    30    25   ar
    30     8     1    1
    31    22    13   ar
    32    20    16   ar
    33    11    12    1
@<TRIPOS>MOLECULE
*****
 30 33 0 0 0
SMALL
GASTEIGER

@<TRIPOS>ATOM
      1 N         141.9405  137.6838  158.0971 N.3     1  UNL1       -0.2660
      2 C         140.5852  138.0879  157.5972 C.3     1  UNL1        0.0942
      3 C         139.6141  138.7594  158.5226 C.3     1  UNL1        0.1112
      4 N         139.9983  139.0267  159.9476 N.am    1  UNL1       -0.2695
      5 C         139.0272  139.6981  160.8729 C.2     1  UNL1        0.3031
      6 O         137.6719  140.1022  160.3730 O.2     1  UNL1       -0.2649
      7 C         141.3536  138.6226  160.4475 C.3     1  UNL1        0.1112
      8 C         142.3247  137.9511  159.5222 C.3     1  UNL1        0.0942
      9 C         139.4114  139.9654  162.2980 C.2     1  UNL1        0.3034
     10 O         139.9780  141.2995  162.6844 O.2     1  UNL1       -0.2648
     11 N         139.2290  138.8988  163.3367 N.am    1  UNL1       -0.2766
     12 H         138.8571  138.0232  163.0831 H       1  UNL1        0.1553
     13 C         139.6132  139.1661  164.7619 C.ar    1  UNL1        0.0508
     14 C         138.5510  139.4213  165.7897 C.ar    1  UNL1        0.0162
     15 C         138.9352  139.6886  167.2148 C.ar    1  UNL1        0.0185
     16 C         140.3816  139.7008  167.6120 C.ar    1  UNL1        0.0601
     17 C         141.4438  139.4456  166.5841 C.ar    1  UNL1        0.0185
     18 C         142.7772  139.5202  167.2671 C.ar    1  UNL1        0.0201
     19 C         142.5391  139.8215  168.7172 C.ar    1  UNL1        0.0760
     20 N         141.0586  139.9331  168.9303 N.ar    1  UNL1       -0.3240
     21 C         140.3749  140.2257  170.2330 C.3     1  UNL1        0.1305
     22 C         141.0596  139.1782  165.1591 C.ar    1  UNL1        0.0162
     23 C         142.9116  137.0124  157.1718 C.3     1  UNL1        0.0992
     24 C         142.0896  131.2789  155.6061 C.3     1  UNL1        0.0310
     25 C         142.2951  132.7123  155.9975 C.ar    1  UNL1       -0.0219
     26 C         141.5914  133.8032  155.2461 C.ar    1  UNL1       -0.0045
     27 C         141.7970  135.2366  155.6375 C.ar    1  UNL1       -0.0032
     28 C         142.7061  135.5790  156.7804 C.ar    1  UNL1       -0.0062
     29 C         143.4098  134.4880  157.5318 C.ar    1  UNL1       -0.0032
     30 C         143.2042  133.0547  157.1404 C.ar    1  UNL1       -0.0045
@<TRIPOS>BOND
     1    24    25    1
     2    25    26   ar
     3    26    27   ar
     4    27    28   ar
     5    28    23    1
     6    23     1    1
     7     1     2    1
     8     2     3    1
     9     3     4    1
    10     4     5   am
    11     5     6    2
    12     5     9    1
    13     9    10    2
    14     9    11   am
    15    11    13    1
    16    13    14   ar
    17    14    15   ar
    18    15    16   ar
    19    16    17   ar
    20    17    18   ar
    21    18    19   ar
    22    19    20   ar
    23    20    21    1
    24    17    22   ar
    25     4     7    1
    26     7     8    1
    27    28    29   ar
    28    29    30   ar
    29    30    25   ar
    30     8     1    1
    31    22    13   ar
    32    20    16   ar
    33    11    12    1
@<TRIPOS>MOLECULE
*****
 30 33 0 0 0
SMALL
GASTEIGER

@<TRIPOS>ATOM
      1 N         143.1380  139.2078  164.4593 N.3     1  UNL1       -0.2660
      2 C         143.4688  140.6093  164.0391 C.3     1  UNL1        0.0942
      3 C         143.3520  141.0073  162.5975 C.3     1  UNL1        0.1112
      4 N         142.9044  140.0040  161.5763 N.am    1  UNL1       -0.2695
      5 C         142.7876  140.4020  160.1349 C.2     1  UNL1        0.3031
      6 O         143.1183  141.8035  159.7146 O.2     1  UNL1       -0.2649
      7 C         142.5736  138.6025  161.9965 C.3     1  UNL1        0.1112
      8 C         142.6904  138.2045  163.4380 C.3     1  UNL1        0.0942
      9 C         142.3400  139.3987  159.1135 C.2     1  UNL1        0.3034
     10 O         140.8829  139.0716  158.9719 O.2     1  UNL1       -0.2648
     11 N         143.3494  138.7224  158.2340 N.am    1  UNL1       -0.2766
     12 H         144.3057  138.9371  158.3270 H       1  UNL1        0.1553
     13 C         142.9018  137.7191  157.2127 C.ar    1  UNL1        0.0508
     14 C         142.3173  138.1830  155.9115 C.ar    1  UNL1        0.0162
     15 C         141.8698  137.1796  154.8903 C.ar    1  UNL1        0.0185
     16 C         142.0066  135.7124  155.1702 C.ar    1  UNL1        0.0601
     17 C         142.5911  135.2484  156.4714 C.ar    1  UNL1        0.0185
     18 C         142.6011  133.7485  156.4665 C.ar    1  UNL1        0.0201
     19 C         142.0228  133.2854  155.1622 C.ar    1  UNL1        0.0760
     20 N         141.6554  134.4991  154.3610 N.ar    1  UNL1       -0.3240
     21 C         141.0441  134.4996  152.9913 C.3     1  UNL1        0.1305
     22 C         143.0386  136.2518  157.4926 C.ar    1  UNL1        0.0162
     23 C         143.2549  138.8097  165.9008 C.3     1  UNL1        0.0992
     24 C         139.1341  140.6362  169.8610 C.3     1  UNL1        0.0310
     25 C         140.1643  140.1796  168.8709 C.ar    1  UNL1       -0.0219
     26 C         139.7891  139.9921  167.4308 C.ar    1  UNL1       -0.0045
     27 C         140.8193  139.5354  166.4407 C.ar    1  UNL1       -0.0032
     28 C         142.2247  139.2663  166.8908 C.ar    1  UNL1       -0.0062
     29 C         142.5998  139.4539  168.3310 C.ar    1  UNL1       -0.0032
     30 C         141.5696  139.9105  169.3210 C.ar    1  UNL1       -0.0045
@<TRIPOS>BOND
     1    24    25    1
     2    25    26   ar
     3    26    27   ar
     4    27    28   ar
     5    28    23    1
     6    23     1    1
     7     1     2    1
     8     2     3    1
     9     3     4    1
    10     4     5   am
    11     5     6    2
    12     5     9    1
    13     9    10    2
    14     9    11   am
    15    11    13    1
    16    13    14   ar
    17    14    15   ar
    18    15    16   ar
    19    16    17   ar
    20    17    18   ar
    21    18    19   ar
    22    19    20   ar
    23    20    21    1
    24    17    22   ar
    25     4     7    1
    26     7     8    1
    27    28    29   ar
    28    29    30   ar
    29    30    25   ar
    30     8     1    1
    31    22    13   ar
    32    20    16   ar
    33    11    12    1
@<TRIPOS>MOLECULE
*****
 30 33 0 0 0
SMALL
GASTEIGER

@<TRIPOS>ATOM
      1 N         139.7374  142.6978  164.7380 N.3     1  UNL1       -0.2660
      2 C         139.2047  144.0976  164.8198 C.3     1  UNL1        0.0942
      3 C         139.2133  144.9757  163.6036 C.3     1  UNL1        0.1112
      4 N         139.7546  144.4538  162.3057 N.am    1  UNL1       -0.2695
      5 C         139.7632  145.3318  161.0895 C.2     1  UNL1        0.3031
      6 O         139.2305  146.7316  161.1713 O.2     1  UNL1       -0.2649
      7 C         140.2874  143.0540  162.2239 C.3     1  UNL1        0.1112
      8 C         140.2788  142.1760  163.4400 C.3     1  UNL1        0.0942
      9 C         140.3046  144.8100  159.7915 C.2     1  UNL1        0.3034
     10 O         139.4219  144.0137  158.8768 O.2     1  UNL1       -0.2648
     11 N         141.7285  145.0845  159.4083 N.am    1  UNL1       -0.2766
     12 H         142.3079  145.6071  160.0087 H       1  UNL1        0.1553
     13 C         142.2699  144.5627  158.1103 C.ar    1  UNL1        0.0508
     14 C         141.9349  145.2582  156.8243 C.ar    1  UNL1        0.0162
     15 C         142.4763  144.7364  155.5264 C.ar    1  UNL1        0.0185
     16 C         143.3526  143.5190  155.5145 C.ar    1  UNL1        0.0601
     17 C         143.6875  142.8235  156.8006 C.ar    1  UNL1        0.0185
     18 C         144.5694  141.6536  156.4787 C.ar    1  UNL1        0.0201
     19 C         144.7795  141.6261  154.9938 C.ar    1  UNL1        0.0760
     20 N         144.0275  142.7790  154.3978 N.ar    1  UNL1       -0.3240
     21 C         143.9618  143.1302  152.9410 C.3     1  UNL1        0.1305
     22 C         143.1462  143.3453  158.0985 C.ar    1  UNL1        0.0162
     23 C         139.7288  141.8198  165.9541 C.3     1  UNL1        0.0992
     24 C         144.0261  142.3970  170.1014 C.3     1  UNL1        0.0310
     25 C         142.9518  142.2527  169.0646 C.ar    1  UNL1       -0.0219
     26 C         141.6405  142.9595  169.2399 C.ar    1  UNL1       -0.0045
     27 C         140.5662  142.8153  168.2031 C.ar    1  UNL1       -0.0032
     28 C         140.8031  141.9641  166.9909 C.ar    1  UNL1       -0.0062
     29 C         142.1144  141.2572  166.8156 C.ar    1  UNL1       -0.0032
     30 C         143.1888  141.4015  167.8525 C.ar    1  UNL1       -0.0045
@<TRIPOS>BOND
     1    24    25    1
     2    25    26   ar
     3    26    27   ar
     4    27    28   ar
     5    28    23    1
     6    23     1    1
     7     1     2    1
     8     2     3    1
     9     3     4    1
    10     4     5   am
    11     5     6    2
    12     5     9    1
    13     9    10    2
    14     9    11   am
    15    11    13    1
    16    13    14   ar
    17    14    15   ar
    18    15    16   ar
    19    16    17   ar
    20    17    18   ar
    21    18    19   ar
    22    19    20   ar
    23    20    21    1
    24    17    22   ar
    25     4     7    1
    26     7     8    1
    27    28    29   ar
    28    29    30   ar
    29    30    25   ar
    30     8     1    1
    31    22    13   ar
    32    20    16   ar
    33    11    12    1
@<TRIPOS>MOLECULE
*****
 30 33 0 0 0
SMALL
GASTEIGER

@<TRIPOS>ATOM
      1 N         143.3072  140.9722  160.4350 N.3     1  UNL1       -0.2660
      2 C         143.2929  141.8701  159.2335 C.3     1  UNL1        0.0942
      3 C         143.3200  141.2789  157.8551 C.3     1  UNL1        0.1112
      4 N         143.3614  139.7899  157.6783 N.am    1  UNL1       -0.2695
      5 C         143.3885  139.1988  156.3000 C.2     1  UNL1        0.3031
      6 O         143.3741  140.0966  155.0985 O.2     1  UNL1       -0.2649
      7 C         143.3758  138.8921  158.8799 C.3     1  UNL1        0.1112
      8 C         143.3487  139.4832  160.2582 C.3     1  UNL1        0.0942
      9 C         143.4299  137.7098  156.1232 C.2     1  UNL1        0.3034
     10 O         144.6768  137.0494  155.6140 O.2     1  UNL1       -0.2648
     11 N         142.2245  136.8812  156.4556 N.am    1  UNL1       -0.2766
     12 H         141.4062  137.3147  156.7897 H       1  UNL1        0.1553
     13 C         142.2660  135.3922  156.2787 C.ar    1  UNL1        0.0508
     14 C         141.3449  134.7273  155.2992 C.ar    1  UNL1        0.0162
     15 C         141.3863  133.2384  155.1224 C.ar    1  UNL1        0.0185
     16 C         142.3489  132.4143  155.9252 C.ar    1  UNL1        0.0601
     17 C         143.2700  133.0792  156.9047 C.ar    1  UNL1        0.0185
     18 C         144.1059  132.0146  157.5511 C.ar    1  UNL1        0.0201
     19 C         143.7014  130.6917  156.9710 C.ar    1  UNL1        0.0760
     20 N         142.6155  130.9387  155.9661 N.ar    1  UNL1       -0.3240
     21 C         141.9186  129.8937  155.1462 C.3     1  UNL1        0.1305
     22 C         143.2285  134.5681  157.0815 C.ar    1  UNL1        0.0162
     23 C         143.2802  141.5634  161.8133 C.3     1  UNL1        0.0992
     24 C         143.8575  138.0101  166.6134 C.3     1  UNL1        0.0310
     25 C         143.7132  138.8984  165.4134 C.ar    1  UNL1       -0.0219
     26 C         142.3513  139.3424  164.9684 C.ar    1  UNL1       -0.0045
     27 C         142.2070  140.2307  163.7684 C.ar    1  UNL1       -0.0032
     28 C         143.4245  140.6750  163.0134 C.ar    1  UNL1       -0.0062
     29 C         144.7864  140.2310  163.4584 C.ar    1  UNL1       -0.0032
     30 C         144.9308  139.3427  164.6584 C.ar    1  UNL1       -0.0045
@<TRIPOS>BOND
     1    24    25    1
     2    25    26   ar
     3    26    27   ar
     4    27    28   ar
     5    28    23    1
     6    23     1    1
     7     1     2    1
     8     2     3    1
     9     3     4    1
    10     4     5   am
    11     5     6    2
    12     5     9    1
    13     9    10    2
    14     9    11   am
    15    11    13    1
    16    13    14   ar
    17    14    15   ar
    18    15    16   ar
    19    16    17   ar
    20    17    18   ar
    21    18    19   ar
    22    19    20   ar
    23    20    21    1
    24    17    22   ar
    25     4     7    1
    26     7     8    1
    27    28    29   ar
    28    29    30   ar
    29    30    25   ar
    30     8     1    1
    31    22    13   ar
    32    20    16   ar
    33    11    12    1
@<TRIPOS>MOLECULE
*****
 30 33 0 0 0
SMALL
GASTEIGER

@<TRIPOS>ATOM
      1 N         141.8878  141.5738  164.5379 N.3     1  UNL1       -0.2660
      2 C         141.4595  142.8773  165.1442 C.3     1  UNL1        0.0942
      3 C         141.0461  144.0160  164.2595 C.3     1  UNL1        0.1112
      4 N         141.0611  143.8512  162.7687 N.am    1  UNL1       -0.2695
      5 C         140.6477  144.9899  161.8842 C.2     1  UNL1        0.3031
      6 O         140.2194  146.2934  162.4904 O.2     1  UNL1       -0.2649
      7 C         141.4893  142.5478  162.1625 C.3     1  UNL1        0.1112
      8 C         141.9027  141.4091  163.0470 C.3     1  UNL1        0.0942
      9 C         140.6626  144.8252  160.3933 C.2     1  UNL1        0.3034
     10 O         139.5206  144.1401  159.7030 O.2     1  UNL1       -0.2648
     11 N         141.8195  145.3455  159.5927 N.am    1  UNL1       -0.2766
     12 H         142.5690  145.7951  160.0458 H       1  UNL1        0.1553
     13 C         141.8344  145.1807  158.1018 C.ar    1  UNL1        0.0508
     14 C         142.6283  144.0716  157.4777 C.ar    1  UNL1        0.0162
     15 C         142.6432  143.9069  155.9869 C.ar    1  UNL1        0.0185
     16 C         141.8642  144.8513  155.1202 C.ar    1  UNL1        0.0601
     17 C         141.0703  145.9604  155.7443 C.ar    1  UNL1        0.0185
     18 C         140.4054  146.7313  154.6426 C.ar    1  UNL1        0.0201
     19 C         140.7884  146.0985  153.3376 C.ar    1  UNL1        0.0760
     20 N         141.6900  144.9367  153.6327 N.ar    1  UNL1       -0.3240
     21 C         142.3087  144.0209  152.6186 C.3     1  UNL1        0.1305
     22 C         141.0554  146.1251  157.2351 C.ar    1  UNL1        0.0162
     23 C         142.3011  140.4351  165.4225 C.3     1  UNL1        0.0992
     24 C         139.8752  139.8405  170.8779 C.3     1  UNL1        0.0310
     25 C         140.4817  139.9892  169.5140 C.ar    1  UNL1       -0.0219
     26 C         139.5971  140.1461  168.3129 C.ar    1  UNL1       -0.0045
     27 C         140.2035  140.2948  166.9491 C.ar    1  UNL1       -0.0032
     28 C         141.6946  140.2865  166.7863 C.ar    1  UNL1       -0.0062
     29 C         142.5792  140.1295  167.9875 C.ar    1  UNL1       -0.0032
     30 C         141.9728  139.9809  169.3513 C.ar    1  UNL1       -0.0045
@<TRIPOS>BOND
     1    24    25    1
     2    25    26   ar
     3    26    27   ar
     4    27    28   ar
     5    28    23    1
     6    23     1    1
     7     1     2    1
     8     2     3    1
     9     3     4    1
    10     4     5   am
    11     5     6    2
    12     5     9    1
    13     9    10    2
    14     9    11   am
    15    11    13    1
    16    13    14   ar
    17    14    15   ar
    18    15    16   ar
    19    16    17   ar
    20    17    18   ar
    21    18    19   ar
    22    19    20   ar
    23    20    21    1
    24    17    22   ar
    25     4     7    1
    26     7     8    1
    27    28    29   ar
    28    29    30   ar
    29    30    25   ar
    30     8     1    1
    31    22    13   ar
    32    20    16   ar
    33    11    12    1
@<TRIPOS>MOLECULE
*****
 30 33 0 0 0
SMALL
GASTEIGER

@<TRIPOS>ATOM
      1 N         142.9129  139.1534  162.1480 N.3     1  UNL1       -0.2660
      2 C         143.3709  140.2916  161.2851 C.3     1  UNL1        0.0942
      3 C         143.3857  140.1426  159.7925 C.3     1  UNL1        0.1112
      4 N         142.9425  138.8554  159.1629 N.am    1  UNL1       -0.2695
      5 C         142.9573  138.7064  157.6704 C.2     1  UNL1        0.3031
      6 O         143.4153  139.8447  156.8076 O.2     1  UNL1       -0.2649
      7 C         142.4845  137.7171  160.0258 C.3     1  UNL1        0.1112
      8 C         142.4697  137.8660  161.5183 C.3     1  UNL1        0.0942
      9 C         142.5141  137.4191  157.0407 C.2     1  UNL1        0.3034
     10 O         141.0526  137.1453  156.8426 O.2     1  UNL1       -0.2648
     11 N         143.5322  136.4056  156.6093 N.am    1  UNL1       -0.2766
     12 H         144.4914  136.5853  156.7394 H       1  UNL1        0.1553
     13 C         143.0890  135.1183  155.9796 C.ar    1  UNL1        0.0508
     14 C         143.0227  133.8652  156.8013 C.ar    1  UNL1        0.0162
     15 C         142.5795  132.5780  156.1716 C.ar    1  UNL1        0.0185
     16 C         142.2026  132.5439  154.7202 C.ar    1  UNL1        0.0601
     17 C         142.2689  133.7969  153.8984 C.ar    1  UNL1        0.0185
     18 C         141.8390  133.4586  152.5017 C.ar    1  UNL1        0.0201
     19 C         141.5070  131.9963  152.4603 C.ar    1  UNL1        0.0760
     20 N         141.7317  131.4310  153.8314 N.ar    1  UNL1       -0.3240
     21 C         141.5224  130.0034  154.2416 C.3     1  UNL1        0.1305
     22 C         142.7121  135.0842  154.5281 C.ar    1  UNL1        0.0162
     23 C         142.8981  139.3023  163.6404 C.3     1  UNL1        0.0992
     24 C         137.7602  138.6504  166.6697 C.3     1  UNL1        0.0310
     25 C         139.0447  138.8134  165.9124 C.ar    1  UNL1       -0.0219
     26 C         139.6389  137.6449  165.1833 C.ar    1  UNL1       -0.0045
     27 C         140.9234  137.8079  164.4260 C.ar    1  UNL1       -0.0032
     28 C         141.6136  139.1393  164.3977 C.ar    1  UNL1       -0.0062
     29 C         141.0194  140.3078  165.1268 C.ar    1  UNL1       -0.0032
     30 C         139.7349  140.1448  165.8841 C.ar    1  UNL1       -0.0045
@<TRIPOS>BOND
     1    24    25    1
     2    25    26   ar
     3    26    27   ar
     4    27    28   ar
     5    28    23    1
     6    23     1    1
     7     1     2    1
     8     2     3    1
     9     3     4    1
    10     4     5   am
    11     5     6    2
    12     5     9    1
    13     9    10    2
    14     9    11   am
    15    11    13    1
    16    13    14   ar
    17    14    15   ar
    18    15    16   ar
    19    16    17   ar
    20    17    18   ar
    21    18    19   ar
    22    19    20   ar
    23    20    21    1
    24    17    22   ar
    25     4     7    1
    26     7     8    1
    27    28    29   ar
    28    29    30   ar
    29    30    25   ar
    30     8     1    1
    31    22    13   ar
    32    20    16   ar
    33    11    12    1
