@<TRIPOS>MOLECULE
*****
 26 29 0 0 0
SMALL
GASTEIGER

@<TRIPOS>ATOM
      1 C         142.5577  137.6398  161.3973 C.3     1  UNL1        0.0905
      2 N         141.3143  137.9958  162.1569 N.3     1  UNL1       -0.2532
      3 C         140.4086  139.0779  161.6481 C.3     1  UNL1        0.1958
      4 C         140.3764  140.4123  162.3325 C.2     1  UNL1        0.3612
      5 N         139.1002  140.9119  162.9421 N.2     1  UNL1       -0.0428
      6 C         139.0679  142.2464  163.6264 C.2     1  UNL1        0.1815
      7 C         137.7917  142.7459  164.2361 C.3     1  UNL1        0.1000
      8 C         137.7595  144.0803  164.9204 C.2     1  UNL1       -0.0174
      9 C         139.0035  144.9152  164.9950 C.2     1  UNL1       -0.0038
     10 C         140.2796  144.4156  164.3853 C.2     1  UNL1        0.0101
     11 C         140.3119  143.0812  163.7011 C.2     1  UNL1        0.1209
     12 C         141.5881  142.5816  163.0914 C.2     1  UNL1        0.3785
     13 O         142.8321  143.4164  163.1660 O.2     1  UNL1       -0.2376
     14 N         141.6203  141.2472  162.4071 N.am    1  UNL1        0.0335
     15 C         140.9765  137.2698  163.4253 C.3     1  UNL1        0.1619
     16 C         140.2303  137.9763  164.5179 C.ar    1  UNL1        0.2530
     17 N         140.7965  139.0084  165.4476 N.ar    1  UNL1       -0.1896
     18 C         139.7030  139.4448  166.3770 C.ar    1  UNL1        0.2033
     19 N         138.4610  138.6823  166.0218 N.ar    1  UNL1       -0.0560
     20 O         138.7869  137.7748  164.8729 O.2     1  UNL1       -0.3356
     21 C         139.8294  140.4645  167.4698 C.ar    1  UNL1        0.0391
     22 C         139.3834  140.1306  168.8625 C.ar    1  UNL1        0.0032
     23 C         139.5097  141.1503  169.9553 C.ar    1  UNL1        0.0001
     24 C         140.0821  142.5040  169.6554 C.ar    1  UNL1        0.0000
     25 C         140.5281  142.8380  168.2627 C.ar    1  UNL1        0.0001
     26 C         140.4017  141.8182  167.1699 C.ar    1  UNL1        0.0032
@<TRIPOS>BOND
     1     1     2    1
     2     2     3    1
     3     3     4    1
     4     4     5    1
     5     5     6    2
     6     6     7    1
     7     7     8    1
     8     8     9    2
     9     9    10    1
    10    10    11    2
    11    11    12    1
    12    12    13    2
    13    12    14    1
    14     2    15    1
    15    15    16    1
    16    16    17   ar
    17    17    18   ar
    18    18    21    1
    19    21    22   ar
    20    22    23   ar
    21    23    24   ar
    22    24    25   ar
    23    25    26   ar
    24    18    19   ar
    25    19    20   ar
    26    14     4    2
    27    20    16   ar
    28    11     6    1
    29    26    21   ar
@<TRIPOS>MOLECULE
*****
 26 29 0 0 0
SMALL
GASTEIGER

@<TRIPOS>ATOM
      1 C         140.3451  145.7142  158.6752 C.3     1  UNL1        0.0905
      2 N         140.0276  144.8991  159.8937 N.3     1  UNL1       -0.2532
      3 C         140.1460  145.5119  161.2577 C.3     1  UNL1        0.1958
      4 C         140.8889  144.7898  162.3424 C.2     1  UNL1        0.3612
      5 N         140.1715  144.3686  163.5905 N.2     1  UNL1       -0.0428
      6 C         140.9144  143.6465  164.6753 C.2     1  UNL1        0.1815
      7 C         140.1970  143.2253  165.9234 C.3     1  UNL1        0.1000
      8 C         140.9399  142.5032  167.0081 C.2     1  UNL1       -0.0174
      9 C         142.4003  142.2023  166.8447 C.2     1  UNL1       -0.0038
     10 C         143.1177  142.6235  165.5966 C.2     1  UNL1        0.0101
     11 C         142.3748  143.3456  164.5119 C.2     1  UNL1        0.1209
     12 C         143.0922  143.7668  163.2637 C.2     1  UNL1        0.3785
     13 O         144.5526  143.4659  163.1003 O.2     1  UNL1       -0.2376
     14 N         142.3493  144.4889  162.1790 N.am    1  UNL1        0.0335
     15 C         139.5916  143.4713  159.7483 C.3     1  UNL1        0.1619
     16 C         138.9051  142.7770  160.8870 C.ar    1  UNL1        0.2530
     17 N         139.3980  141.5519  161.5985 N.ar    1  UNL1       -0.1896
     18 C         138.4028  141.2036  162.6654 C.ar    1  UNL1        0.2033
     19 N         137.2949  142.2135  162.6133 N.ar    1  UNL1       -0.0560
     20 O         137.6053  143.1858  161.5142 O.2     1  UNL1       -0.3356
     21 C         138.4987  140.0483  163.6173 C.ar    1  UNL1        0.0391
     22 C         138.1836  140.2456  165.0705 C.ar    1  UNL1        0.0032
     23 C         138.2795  139.0904  166.0224 C.ar    1  UNL1        0.0001
     24 C         138.6906  137.7376  165.5211 C.ar    1  UNL1        0.0000
     25 C         139.0057  137.5403  164.0679 C.ar    1  UNL1        0.0001
     26 C         138.9098  138.6956  163.1160 C.ar    1  UNL1        0.0032
@<TRIPOS>BOND
     1     1     2    1
     2     2     3    1
     3     3     4    1
     4     4     5    1
     5     5     6    2
     6     6     7    1
     7     7     8    1
     8     8     9    2
     9     9    10    1
    10    10    11    2
    11    11    12    1
    12    12    13    2
    13    12    14    1
    14     2    15    1
    15    15    16    1
    16    16    17   ar
    17    17    18   ar
    18    18    21    1
    19    21    22   ar
    20    22    23   ar
    21    23    24   ar
    22    24    25   ar
    23    25    26   ar
    24    18    19   ar
    25    19    20   ar
    26    14     4    2
    27    20    16   ar
    28    11     6    1
    29    26    21   ar
@<TRIPOS>MOLECULE
*****
 26 29 0 0 0
SMALL
GASTEIGER

@<TRIPOS>ATOM
      1 C         145.2878  141.3054  163.5055 C.3     1  UNL1        0.0905
      2 N         144.1763  140.3010  163.4304 N.3     1  UNL1       -0.2532
      3 C         143.0764  140.4734  162.4252 C.3     1  UNL1        0.1958
      4 C         141.7524  141.0354  162.8509 C.2     1  UNL1        0.3612
      5 N         141.6852  142.3843  163.5036 N.2     1  UNL1       -0.0428
      6 C         140.3612  142.9464  163.9293 C.2     1  UNL1        0.1815
      7 C         140.2940  144.2952  164.5820 C.3     1  UNL1        0.1000
      8 C         138.9701  144.8573  165.0077 C.2     1  UNL1       -0.0174
      9 C         137.7134  144.0704  164.7808 C.2     1  UNL1       -0.0038
     10 C         137.7806  142.7215  164.1281 C.2     1  UNL1        0.0101
     11 C         139.1045  142.1595  163.7024 C.2     1  UNL1        0.1209
     12 C         139.1718  140.8106  163.0497 C.2     1  UNL1        0.3785
     13 O         137.9150  140.0237  162.8227 O.2     1  UNL1       -0.2376
     14 N         140.4957  140.2486  162.6240 N.am    1  UNL1        0.0335
     15 C         144.1646  139.1243  164.3606 C.3     1  UNL1        0.1619
     16 C         143.6139  139.2706  165.7482 C.ar    1  UNL1        0.2530
     17 N         142.7608  140.4005  166.2436 N.ar    1  UNL1       -0.1896
     18 C         142.4393  140.1409  167.6855 C.ar    1  UNL1        0.2033
     19 N         143.0938  138.8506  168.0814 N.ar    1  UNL1       -0.0560
     20 O         143.8198  138.3127  166.8840 O.2     1  UNL1       -0.3356
     21 C         141.6091  141.0178  168.5755 C.ar    1  UNL1        0.0391
     22 C         140.3073  140.5124  169.1231 C.ar    1  UNL1        0.0032
     23 C         139.4770  141.3891  170.0130 C.ar    1  UNL1        0.0001
     24 C         139.9487  142.7714  170.3554 C.ar    1  UNL1        0.0000
     25 C         141.2505  143.2767  169.8077 C.ar    1  UNL1        0.0001
     26 C         142.0807  142.3999  168.9178 C.ar    1  UNL1        0.0032
@<TRIPOS>BOND
     1     1     2    1
     2     2     3    1
     3     3     4    1
     4     4     5    1
     5     5     6    2
     6     6     7    1
     7     7     8    1
     8     8     9    2
     9     9    10    1
    10    10    11    2
    11    11    12    1
    12    12    13    2
    13    12    14    1
    14     2    15    1
    15    15    16    1
    16    16    17   ar
    17    17    18   ar
    18    18    21    1
    19    21    22   ar
    20    22    23   ar
    21    23    24   ar
    22    24    25   ar
    23    25    26   ar
    24    18    19   ar
    25    19    20   ar
    26    14     4    2
    27    20    16   ar
    28    11     6    1
    29    26    21   ar
@<TRIPOS>MOLECULE
*****
 26 29 0 0 0
SMALL
GASTEIGER

@<TRIPOS>ATOM
      1 C         140.3796  143.3105  169.5972 C.3     1  UNL1        0.0905
      2 N         140.7615  141.8652  169.7203 N.3     1  UNL1       -0.2532
      3 C         142.1939  141.4514  169.5567 C.3     1  UNL1        0.1958
      4 C         142.6705  140.9009  168.2452 C.2     1  UNL1        0.3612
      5 N         142.8932  141.8213  167.0819 N.2     1  UNL1       -0.0428
      6 C         143.3698  141.2708  165.7705 C.2     1  UNL1        0.1815
      7 C         143.5925  142.1912  164.6072 C.3     1  UNL1        0.1000
      8 C         144.0691  141.6407  163.2958 C.2     1  UNL1       -0.0174
      9 C         144.3229  140.1697  163.1477 C.2     1  UNL1       -0.0038
     10 C         144.1002  139.2493  164.3110 C.2     1  UNL1        0.0101
     11 C         143.6237  139.7999  165.6223 C.2     1  UNL1        0.1209
     12 C         143.4009  138.8794  166.7857 C.2     1  UNL1        0.3785
     13 O         143.6548  137.4085  166.6376 O.2     1  UNL1       -0.2376
     14 N         142.9244  139.4300  168.0971 N.am    1  UNL1        0.0335
     15 C         139.7109  140.8336  170.0069 C.3     1  UNL1        0.1619
     16 C         139.0568  140.0952  168.8769 C.ar    1  UNL1        0.2530
     17 N         139.4085  140.2164  167.4238 N.ar    1  UNL1       -0.1896
     18 C         138.5053  139.3020  166.6505 C.ar    1  UNL1        0.2033
     19 N         137.5954  138.6155  167.6257 N.ar    1  UNL1       -0.0560
     20 O         137.9363  139.1058  169.0017 O.2     1  UNL1       -0.3356
     21 C         138.5110  139.1080  165.1630 C.ar    1  UNL1        0.0391
     22 C         138.0860  140.2271  164.2591 C.ar    1  UNL1        0.0032
     23 C         138.0917  140.0332  162.7717 C.ar    1  UNL1        0.0001
     24 C         138.5223  138.7201  162.1882 C.ar    1  UNL1        0.0000
     25 C         138.9473  137.6010  163.0921 C.ar    1  UNL1        0.0001
     26 C         138.9416  137.7950  164.5796 C.ar    1  UNL1        0.0032
@<TRIPOS>BOND
     1     1     2    1
     2     2     3    1
     3     3     4    1
     4     4     5    1
     5     5     6    2
     6     6     7    1
     7     7     8    1
     8     8     9    2
     9     9    10    1
    10    10    11    2
    11    11    12    1
    12    12    13    2
    13    12    14    1
    14     2    15    1
    15    15    16    1
    16    16    17   ar
    17    17    18   ar
    18    18    21    1
    19    21    22   ar
    20    22    23   ar
    21    23    24   ar
    22    24    25   ar
    23    25    26   ar
    24    18    19   ar
    25    19    20   ar
    26    14     4    2
    27    20    16   ar
    28    11     6    1
    29    26    21   ar
@<TRIPOS>MOLECULE
*****
 26 29 0 0 0
SMALL
GASTEIGER

@<TRIPOS>ATOM
      1 C         144.7743  142.0249  160.7633 C.3     1  UNL1        0.0905
      2 N         144.9152  142.5874  162.1466 N.3     1  UNL1       -0.2532
      3 C         144.3451  143.9368  162.4691 C.3     1  UNL1        0.1958
      4 C         142.8589  144.1228  162.5521 C.2     1  UNL1        0.3612
      5 N         142.1300  143.7826  163.8181 N.2     1  UNL1       -0.0428
      6 C         140.6438  143.9686  163.9010 C.2     1  UNL1        0.1815
      7 C         139.9149  143.6283  165.1670 C.3     1  UNL1        0.1000
      8 C         138.4288  143.8143  165.2499 C.2     1  UNL1       -0.0174
      9 C         137.6717  144.3406  164.0667 C.2     1  UNL1       -0.0038
     10 C         138.4006  144.6808  162.8007 C.2     1  UNL1        0.0101
     11 C         139.8867  144.4948  162.7179 C.2     1  UNL1        0.1209
     12 C         140.6157  144.8350  161.4518 C.2     1  UNL1        0.3785
     13 O         139.8586  145.3612  160.2686 O.2     1  UNL1       -0.2376
     14 N         142.1018  144.6490  161.3689 N.am    1  UNL1        0.0335
     15 C         145.6263  141.8006  163.2074 C.3     1  UNL1        0.1619
     16 C         144.8494  140.8983  164.1195 C.ar    1  UNL1        0.2530
     17 N         143.7857  141.3262  165.0866 N.ar    1  UNL1       -0.1896
     18 C         143.2785  140.1020  165.7895 C.ar    1  UNL1        0.2033
     19 N         144.0288  138.9174  165.2567 N.ar    1  UNL1       -0.0560
     20 O         144.9996  139.4095  164.2246 O.2     1  UNL1       -0.3356
     21 C         142.2089  140.0683  166.8406 C.ar    1  UNL1        0.0391
     22 C         142.5798  139.8854  168.2825 C.ar    1  UNL1        0.0032
     23 C         141.5103  139.8516  169.3337 C.ar    1  UNL1        0.0001
     24 C         140.0697  140.0009  168.9429 C.ar    1  UNL1        0.0000
     25 C         139.6988  140.1838  167.5010 C.ar    1  UNL1        0.0001
     26 C         140.7684  140.2176  166.4499 C.ar    1  UNL1        0.0032
@<TRIPOS>BOND
     1     1     2    1
     2     2     3    1
     3     3     4    1
     4     4     5    1
     5     5     6    2
     6     6     7    1
     7     7     8    1
     8     8     9    2
     9     9    10    1
    10    10    11    2
    11    11    12    1
    12    12    13    2
    13    12    14    1
    14     2    15    1
    15    15    16    1
    16    16    17   ar
    17    17    18   ar
    18    18    21    1
    19    21    22   ar
    20    22    23   ar
    21    23    24   ar
    22    24    25   ar
    23    25    26   ar
    24    18    19   ar
    25    19    20   ar
    26    14     4    2
    27    20    16   ar
    28    11     6    1
    29    26    21   ar
@<TRIPOS>MOLECULE
*****
 26 29 0 0 0
SMALL
GASTEIGER

@<TRIPOS>ATOM
      1 C         140.0924  138.0150  161.1310 C.3     1  UNL1        0.0905
      2 N         141.1444  137.8348  162.1850 N.3     1  UNL1       -0.2532
      3 C         142.5421  138.3211  161.9404 C.3     1  UNL1        0.1958
      4 C         142.9544  139.6852  162.4090 C.2     1  UNL1        0.3612
      5 N         141.9127  140.7224  162.7073 N.2     1  UNL1       -0.0428
      6 C         142.3251  142.0864  163.1759 C.2     1  UNL1        0.1815
      7 C         141.2834  143.1236  163.4742 C.3     1  UNL1        0.1000
      8 C         141.6957  144.4875  163.9428 C.2     1  UNL1       -0.0174
      9 C         143.1498  144.8142  164.1130 C.2     1  UNL1       -0.0038
     10 C         144.1915  143.7771  163.8147 C.2     1  UNL1        0.0101
     11 C         143.7791  142.4131  163.3461 C.2     1  UNL1        0.1209
     12 C         144.8208  141.3758  163.0478 C.2     1  UNL1        0.3785
     13 O         146.2749  141.7026  163.2180 O.2     1  UNL1       -0.2376
     14 N         144.4085  140.0119  162.5792 N.am    1  UNL1        0.0335
     15 C         140.7987  137.1683  163.4835 C.3     1  UNL1        0.1619
     16 C         140.0935  137.9409  164.5587 C.ar    1  UNL1        0.2530
     17 N         140.7186  138.9555  165.4695 N.ar    1  UNL1       -0.1896
     18 C         139.6509  139.4762  166.3855 C.ar    1  UNL1        0.2033
     19 N         138.3660  138.7832  166.0408 N.ar    1  UNL1       -0.0560
     20 O         138.6396  137.8343  164.9117 O.2     1  UNL1       -0.3356
     21 C         139.8357  140.5085  167.4580 C.ar    1  UNL1        0.0391
     22 C         140.4412  141.8390  167.1219 C.ar    1  UNL1        0.0032
     23 C         140.6260  142.8714  168.1943 C.ar    1  UNL1        0.0001
     24 C         140.2052  142.5731  169.6029 C.ar    1  UNL1        0.0000
     25 C         139.5997  141.2426  169.9390 C.ar    1  UNL1        0.0001
     26 C         139.4149  140.2103  168.8665 C.ar    1  UNL1        0.0032
@<TRIPOS>BOND
     1     1     2    1
     2     2     3    1
     3     3     4    1
     4     4     5    1
     5     5     6    2
     6     6     7    1
     7     7     8    1
     8     8     9    2
     9     9    10    1
    10    10    11    2
    11    11    12    1
    12    12    13    2
    13    12    14    1
    14     2    15    1
    15    15    16    1
    16    16    17   ar
    17    17    18   ar
    18    18    21    1
    19    21    22   ar
    20    22    23   ar
    21    23    24   ar
    22    24    25   ar
    23    25    26   ar
    24    18    19   ar
    25    19    20   ar
    26    14     4    2
    27    20    16   ar
    28    11     6    1
    29    26    21   ar
@<TRIPOS>MOLECULE
*****
 26 29 0 0 0
SMALL
GASTEIGER

@<TRIPOS>ATOM
      1 C         140.4149  142.2606  170.3180 C.3     1  UNL1        0.0905
      2 N         141.0061  141.5292  169.1496 N.3     1  UNL1       -0.2532
      3 C         141.9468  142.2368  168.2199 C.3     1  UNL1        0.1958
      4 C         141.5212  142.5471  166.8153 C.2     1  UNL1        0.3612
      5 N         140.1650  143.1324  166.5546 N.2     1  UNL1       -0.0428
      6 C         139.7394  143.4427  165.1500 C.2     1  UNL1        0.1815
      7 C         138.3832  144.0280  164.8893 C.3     1  UNL1        0.1000
      8 C         137.9577  144.3382  163.4848 C.2     1  UNL1       -0.0174
      9 C         138.8884  144.0632  162.3410 C.2     1  UNL1       -0.0038
     10 C         140.2446  143.4779  162.6018 C.2     1  UNL1        0.0101
     11 C         140.6701  143.1676  164.0063 C.2     1  UNL1        0.1209
     12 C         142.0264  142.5823  164.2671 C.2     1  UNL1        0.3785
     13 O         142.9571  142.3073  163.1234 O.2     1  UNL1       -0.2376
     14 N         142.4519  142.2720  165.6716 N.am    1  UNL1        0.0335
     15 C         140.6567  140.0901  168.9108 C.3     1  UNL1        0.1619
     16 C         139.6683  139.7255  167.8430 C.ar    1  UNL1        0.2530
     17 N         139.8739  139.8718  166.3643 N.ar    1  UNL1       -0.1896
     18 C         138.6335  139.3873  165.6738 C.ar    1  UNL1        0.2033
     19 N         137.6614  138.9417  166.7257 N.ar    1  UNL1       -0.0560
     20 O         138.3010  139.1507  168.0663 O.2     1  UNL1       -0.3356
     21 C         138.4054  139.3543  164.1916 C.ar    1  UNL1        0.0391
     22 C         138.7027  138.1062  163.4146 C.ar    1  UNL1        0.0032
     23 C         138.4746  138.0731  161.9324 C.ar    1  UNL1        0.0001
     24 C         137.9490  139.2883  161.2272 C.ar    1  UNL1        0.0000
     25 C         137.6516  140.5364  162.0042 C.ar    1  UNL1        0.0001
     26 C         137.8798  140.5694  163.4864 C.ar    1  UNL1        0.0032
@<TRIPOS>BOND
     1     1     2    1
     2     2     3    1
     3     3     4    1
     4     4     5    1
     5     5     6    2
     6     6     7    1
     7     7     8    1
     8     8     9    2
     9     9    10    1
    10    10    11    2
    11    11    12    1
    12    12    13    2
    13    12    14    1
    14     2    15    1
    15    15    16    1
    16    16    17   ar
    17    17    18   ar
    18    18    21    1
    19    21    22   ar
    20    22    23   ar
    21    23    24   ar
    22    24    25   ar
    23    25    26   ar
    24    18    19   ar
    25    19    20   ar
    26    14     4    2
    27    20    16   ar
    28    11     6    1
    29    26    21   ar
@<TRIPOS>MOLECULE
*****
 26 29 0 0 0
SMALL
GASTEIGER

@<TRIPOS>ATOM
      1 C         138.0699  144.5046  163.3665 C.3     1  UNL1        0.0905
      2 N         138.3974  143.1922  162.7183 N.3     1  UNL1       -0.2532
      3 C         139.5046  143.1096  161.7097 C.3     1  UNL1        0.1958
      4 C         140.9180  142.8939  162.1634 C.2     1  UNL1        0.3612
      5 N         141.3543  141.5403  162.6403 N.2     1  UNL1       -0.0428
      6 C         142.7677  141.3246  163.0941 C.2     1  UNL1        0.1815
      7 C         143.2040  139.9710  163.5709 C.3     1  UNL1        0.1000
      8 C         144.6173  139.7553  164.0246 C.2     1  UNL1       -0.0174
      9 C         145.5944  140.8932  164.0015 C.2     1  UNL1       -0.0038
     10 C         145.1581  142.2468  163.5247 C.2     1  UNL1        0.0101
     11 C         143.7447  142.4625  163.0709 C.2     1  UNL1        0.1209
     12 C         143.3084  143.8161  162.5941 C.2     1  UNL1        0.3785
     13 O         144.2854  144.9540  162.5710 O.2     1  UNL1       -0.2376
     14 N         141.8950  144.0318  162.1403 N.am    1  UNL1        0.0335
     15 C         137.6178  141.9625  163.0786 C.3     1  UNL1        0.1619
     16 C         138.1640  140.9973  164.0885 C.ar    1  UNL1        0.2530
     17 N         139.0866  141.3352  165.2218 N.ar    1  UNL1       -0.1896
     18 C         139.3763  140.0715  165.9762 C.ar    1  UNL1        0.2033
     19 N         138.6326  138.9525  165.3091 N.ar    1  UNL1       -0.0560
     20 O         137.8834  139.5247  164.1425 O.2     1  UNL1       -0.3356
     21 C         140.2553  139.9483  167.1854 C.ar    1  UNL1        0.0391
     22 C         141.7260  139.7025  167.0217 C.ar    1  UNL1        0.0032
     23 C         142.6051  139.5793  168.2309 C.ar    1  UNL1        0.0001
     24 C         142.0134  139.7019  169.6039 C.ar    1  UNL1        0.0000
     25 C         140.5427  139.9476  169.7676 C.ar    1  UNL1        0.0001
     26 C         139.6637  140.0708  168.5584 C.ar    1  UNL1        0.0032
@<TRIPOS>BOND
     1     1     2    1
     2     2     3    1
     3     3     4    1
     4     4     5    1
     5     5     6    2
     6     6     7    1
     7     7     8    1
     8     8     9    2
     9     9    10    1
    10    10    11    2
    11    11    12    1
    12    12    13    2
    13    12    14    1
    14     2    15    1
    15    15    16    1
    16    16    17   ar
    17    17    18   ar
    18    18    21    1
    19    21    22   ar
    20    22    23   ar
    21    23    24   ar
    22    24    25   ar
    23    25    26   ar
    24    18    19   ar
    25    19    20   ar
    26    14     4    2
    27    20    16   ar
    28    11     6    1
    29    26    21   ar
@<TRIPOS>MOLECULE
*****
 26 29 0 0 0
SMALL
GASTEIGER

@<TRIPOS>ATOM
      1 C         142.5750  138.0739  162.6116 C.3     1  UNL1        0.0905
      2 N         143.3700  139.2413  163.1168 N.3     1  UNL1       -0.2532
      3 C         143.2738  140.5693  162.4261 C.3     1  UNL1        0.1958
      4 C         142.3448  141.6229  162.9525 C.2     1  UNL1        0.3612
      5 N         140.9101  141.2860  163.2319 N.2     1  UNL1       -0.0428
      6 C         139.9811  142.3396  163.7583 C.2     1  UNL1        0.1815
      7 C         138.5464  142.0027  164.0377 C.3     1  UNL1        0.1000
      8 C         137.6174  143.0563  164.5640 C.2     1  UNL1       -0.0174
      9 C         138.1232  144.4467  164.8109 C.2     1  UNL1       -0.0038
     10 C         139.5579  144.7836  164.5315 C.2     1  UNL1        0.0101
     11 C         140.4868  143.7300  164.0051 C.2     1  UNL1        0.1209
     12 C         141.9216  144.0669  163.7257 C.2     1  UNL1        0.3785
     13 O         142.4274  145.4573  163.9726 O.2     1  UNL1       -0.2376
     14 N         142.8505  143.0133  163.1994 N.am    1  UNL1        0.0335
     15 C         144.2612  139.0806  164.3126 C.3     1  UNL1        0.1619
     16 C         143.6929  139.2116  165.6945 C.ar    1  UNL1        0.2530
     17 N         142.8157  140.3250  166.1852 N.ar    1  UNL1       -0.1896
     18 C         142.4827  140.0537  167.6224 C.ar    1  UNL1        0.2033
     19 N         143.1541  138.7726  168.0199 N.ar    1  UNL1       -0.0560
     20 O         143.9020  138.2522  166.8285 O.2     1  UNL1       -0.3356
     21 C         141.6282  140.9127  168.5067 C.ar    1  UNL1        0.0391
     22 C         142.0441  142.3210  168.8128 C.ar    1  UNL1        0.0032
     23 C         141.1898  143.1801  169.6972 C.ar    1  UNL1        0.0001
     24 C         139.9193  142.6307  170.2755 C.ar    1  UNL1        0.0000
     25 C         139.5034  141.2224  169.9694 C.ar    1  UNL1        0.0001
     26 C         140.3579  140.3634  169.0850 C.ar    1  UNL1        0.0032
@<TRIPOS>BOND
     1     1     2    1
     2     2     3    1
     3     3     4    1
     4     4     5    1
     5     5     6    2
     6     6     7    1
     7     7     8    1
     8     8     9    2
     9     9    10    1
    10    10    11    2
    11    11    12    1
    12    12    13    2
    13    12    14    1
    14     2    15    1
    15    15    16    1
    16    16    17   ar
    17    17    18   ar
    18    18    21    1
    19    21    22   ar
    20    22    23   ar
    21    23    24   ar
    22    24    25   ar
    23    25    26   ar
    24    18    19   ar
    25    19    20   ar
    26    14     4    2
    27    20    16   ar
    28    11     6    1
    29    26    21   ar
