@<TRIPOS>MOLECULE
*****
 31 33 0 0 0
SMALL
GASTEIGER

@<TRIPOS>ATOM
      1 C         138.6527  141.7796  164.9348 C.3     1  UNL1        0.1688
      2 C         137.7949  141.8336  163.7054 C.3     1  UNL1        0.0609
      3 C         137.7793  143.0693  162.8554 C.3     1  UNL1        0.0758
      4 N         138.6216  144.2512  163.2347 N.3     1  UNL1       -0.2724
      5 C         139.4794  144.1973  164.4640 C.3     1  UNL1        0.0758
      6 C         139.4950  142.9615  165.3141 C.3     1  UNL1        0.0609
      7 O         138.6683  140.5438  165.7848 O.3     1  UNL1       -0.4776
      8 C         141.1454  139.9509  168.8282 C.ar    1  UNL1       -0.0191
      9 C         139.9129  140.3130  168.0536 C.ar    1  UNL1        0.0342
     10 C         139.9007  140.1818  166.5594 C.ar    1  UNL1        0.1555
     11 C         141.1210  139.6886  165.8398 C.ar    1  UNL1        0.1151
     12 N         141.1088  139.5575  164.3456 N.ar    1  UNL1       -0.2408
     13 C         142.3290  139.0643  163.6261 C.ar    1  UNL1        0.0989
     14 C         143.5614  138.7023  164.4007 C.ar    1  UNL1        0.0207
     15 C         143.5736  138.8334  165.8949 C.ar    1  UNL1        0.0032
     16 C         142.3534  139.3266  166.6144 C.ar    1  UNL1        0.0204
     17 C         142.3656  139.4578  168.1087 C.ar    1  UNL1       -0.0026
     18 C         141.1576  140.0821  170.3225 C.3     1  UNL1        0.0265
     19 C         140.7468  141.3736  170.9653 C.3     1  UNL1        0.0047
     20 C         140.5106  143.6320  169.7028 C.3     1  UNL1        0.0000
     21 C         141.3422  142.6678  170.4958 C.3     1  UNL1        0.0003
     22 C         138.6060  145.4870  162.3847 C.3     1  UNL1        0.0721
     23 C         139.8925  146.0535  161.8611 C.3     1  UNL1        0.0188
     24 C         140.7159  145.2671  160.8846 C.3     1  UNL1        0.0202
     25 C         141.8393  144.4031  161.3757 C.3     1  UNL1        0.0911
     26 N         143.0626  145.0319  161.9744 N.3     1  UNL1       -0.1833
     27 H         142.8490  146.0199  162.1108 H       1  UNL1        0.1484
     28 S         143.6069  144.5228  163.2761 S.O2    1  UNL1        0.0426
     29 C         144.1512  144.0137  164.5779 C.3     1  UNL1        0.1957
     30 O         142.6252  145.3780  164.0210 O.2     1  UNL1       -0.1575
     31 O         144.5885  143.6676  162.5312 O.2     1  UNL1       -0.1575
@<TRIPOS>BOND
     1    20    21    1
     2    21    19    1
     3    19    18    1
     4    18     8    1
     5     8     9   ar
     6     9    10   ar
     7    10     7    1
     8     7     1    1
     9     1     2    1
    10     2     3    1
    11     3     4    1
    12     4    22    1
    13    22    23    1
    14    23    24    1
    15    24    25    1
    16    25    26    1
    17    26    28    1
    18    28    29    1
    19    28    30    2
    20    28    31    2
    21     4     5    1
    22     5     6    1
    23    10    11   ar
    24    11    12   ar
    25    12    13   ar
    26    13    14   ar
    27    14    15   ar
    28    15    16   ar
    29    16    17   ar
    30    17     8   ar
    31     6     1    1
    32    16    11   ar
    33    26    27    1
@<TRIPOS>MOLECULE
*****
 31 33 0 0 0
SMALL
GASTEIGER

@<TRIPOS>ATOM
      1 C         141.1863  138.3314  164.6663 C.3     1  UNL1        0.1688
      2 C         141.4047  137.7657  163.2943 C.3     1  UNL1        0.0609
      3 C         140.2827  137.7585  162.2988 C.3     1  UNL1        0.0758
      4 N         138.9424  138.3169  162.6752 N.3     1  UNL1       -0.2724
      5 C         138.7240  138.8826  164.0472 C.3     1  UNL1        0.0758
      6 C         139.8460  138.8898  165.0428 C.3     1  UNL1        0.0609
      7 O         142.3083  138.3387  165.6618 O.3     1  UNL1       -0.4776
      8 C         142.7034  140.8521  168.7075 C.ar    1  UNL1       -0.0191
      9 C         142.4011  139.6073  167.9272 C.ar    1  UNL1        0.0342
     10 C         142.6106  139.5835  166.4422 C.ar    1  UNL1        0.1555
     11 C         143.1225  140.8047  165.7373 C.ar    1  UNL1        0.1151
     12 N         143.3321  140.7810  164.2522 N.ar    1  UNL1       -0.2408
     13 C         143.8439  142.0021  163.5475 C.ar    1  UNL1        0.0989
     14 C         144.1463  143.2470  164.3278 C.ar    1  UNL1        0.0207
     15 C         143.9367  143.2708  165.8129 C.ar    1  UNL1        0.0032
     16 C         143.4248  142.0496  166.5176 C.ar    1  UNL1        0.0204
     17 C         143.2152  142.0733  168.0028 C.ar    1  UNL1       -0.0026
     18 C         142.4938  140.8758  170.1927 C.3     1  UNL1        0.0265
     19 C         141.8170  142.0498  170.8360 C.3     1  UNL1        0.0047
     20 C         140.3425  143.9165  169.7913 C.3     1  UNL1        0.0000
     21 C         140.4883  142.5222  170.3249 C.3     1  UNL1        0.0003
     22 C         137.8204  138.3097  161.6797 C.3     1  UNL1        0.0721
     23 C         137.4620  139.5671  160.9444 C.3     1  UNL1        0.0188
     24 C         138.5338  140.3777  160.2780 C.3     1  UNL1        0.0202
     25 C         138.8927  141.7317  160.8143 C.3     1  UNL1        0.0911
     26 N         137.8113  142.6850  161.2290 N.3     1  UNL1       -0.1833
     27 H         136.9297  142.1760  161.1652 H       1  UNL1        0.1484
     28 S         137.8492  143.3167  162.5889 S.O2    1  UNL1        0.0426
     29 C         137.8872  143.9484  163.9489 C.3     1  UNL1        0.1957
     30 O         137.0974  142.1476  163.1529 O.2     1  UNL1       -0.1575
     31 O         138.6010  144.4857  162.0250 O.2     1  UNL1       -0.1575
@<TRIPOS>BOND
     1    20    21    1
     2    21    19    1
     3    19    18    1
     4    18     8    1
     5     8     9   ar
     6     9    10   ar
     7    10     7    1
     8     7     1    1
     9     1     2    1
    10     2     3    1
    11     3     4    1
    12     4    22    1
    13    22    23    1
    14    23    24    1
    15    24    25    1
    16    25    26    1
    17    26    28    1
    18    28    29    1
    19    28    30    2
    20    28    31    2
    21     4     5    1
    22     5     6    1
    23    10    11   ar
    24    11    12   ar
    25    12    13   ar
    26    13    14   ar
    27    14    15   ar
    28    15    16   ar
    29    16    17   ar
    30    17     8   ar
    31     6     1    1
    32    16    11   ar
    33    26    27    1
@<TRIPOS>MOLECULE
*****
 31 33 0 0 0
SMALL
GASTEIGER

@<TRIPOS>ATOM
      1 C         142.2289  142.9044  164.5728 C.3     1  UNL1        0.1688
      2 C         141.5696  144.2354  164.3634 C.3     1  UNL1        0.0609
      3 C         141.3446  144.7505  162.9727 C.3     1  UNL1        0.0758
      4 N         141.7790  143.9346  161.7913 N.3     1  UNL1       -0.2724
      5 C         142.4383  142.6037  162.0006 C.3     1  UNL1        0.0758
      6 C         142.6633  142.0885  163.3914 C.3     1  UNL1        0.0609
      7 O         142.4539  142.3893  165.9634 O.3     1  UNL1       -0.4776
      8 C         139.3583  139.9761  166.5498 C.ar    1  UNL1       -0.0191
      9 C         140.4340  140.7588  165.8568 C.ar    1  UNL1        0.0342
     10 C         141.3782  141.6066  166.6565 C.ar    1  UNL1        0.1555
     11 C         141.2468  141.6718  168.1494 C.ar    1  UNL1        0.1151
     12 N         142.1910  142.5196  168.9491 N.ar    1  UNL1       -0.2408
     13 C         142.0595  142.5847  170.4419 C.ar    1  UNL1        0.0989
     14 C         140.9838  141.8020  171.1349 C.ar    1  UNL1        0.0207
     15 C         140.0396  140.9542  170.3352 C.ar    1  UNL1        0.0032
     16 C         140.1711  140.8891  168.8424 C.ar    1  UNL1        0.0204
     17 C         139.2269  140.0412  168.0426 C.ar    1  UNL1       -0.0026
     18 C         138.4141  139.1282  165.7500 C.3     1  UNL1        0.0265
     19 C         138.8856  137.8317  165.1611 C.3     1  UNL1        0.0047
     20 C         139.4519  138.7991  162.8174 C.3     1  UNL1        0.0000
     21 C         138.9619  137.6681  163.6721 C.3     1  UNL1        0.0003
     22 C         141.5540  144.4497  160.4007 C.3     1  UNL1        0.0721
     23 C         140.1685  144.4783  159.8264 C.3     1  UNL1        0.0188
     24 C         139.4475  143.1939  159.5429 C.3     1  UNL1        0.0202
     25 C         138.7728  142.4508  160.6575 C.3     1  UNL1        0.0911
     26 N         137.6475  143.0929  161.4137 N.3     1  UNL1       -0.1833
     27 H         136.8352  142.4857  161.3046 H       1  UNL1        0.1484
     28 S         137.7900  143.3658  162.8817 S.O2    1  UNL1        0.0426
     29 C         137.9324  143.6388  164.3499 C.3     1  UNL1        0.1957
     30 O         137.6918  141.8960  163.1645 O.2     1  UNL1       -0.1575
     31 O         137.8881  144.8356  162.5990 O.2     1  UNL1       -0.1575
@<TRIPOS>BOND
     1    20    21    1
     2    21    19    1
     3    19    18    1
     4    18     8    1
     5     8     9   ar
     6     9    10   ar
     7    10     7    1
     8     7     1    1
     9     1     2    1
    10     2     3    1
    11     3     4    1
    12     4    22    1
    13    22    23    1
    14    23    24    1
    15    24    25    1
    16    25    26    1
    17    26    28    1
    18    28    29    1
    19    28    30    2
    20    28    31    2
    21     4     5    1
    22     5     6    1
    23    10    11   ar
    24    11    12   ar
    25    12    13   ar
    26    13    14   ar
    27    14    15   ar
    28    15    16   ar
    29    16    17   ar
    30    17     8   ar
    31     6     1    1
    32    16    11   ar
    33    26    27    1
@<TRIPOS>MOLECULE
*****
 31 33 0 0 0
SMALL
GASTEIGER

@<TRIPOS>ATOM
      1 C         140.9342  138.5999  165.0396 C.3     1  UNL1        0.1688
      2 C         139.5886  139.2338  165.2331 C.3     1  UNL1        0.0609
      3 C         138.5432  139.1158  164.1639 C.3     1  UNL1        0.0758
      4 N         138.8433  138.3639  162.9012 N.3     1  UNL1       -0.2724
      5 C         140.1889  137.7299  162.7077 C.3     1  UNL1        0.0758
      6 C         141.2344  137.8479  163.7769 C.3     1  UNL1        0.0609
      7 O         141.9796  138.7179  166.1088 O.3     1  UNL1       -0.4776
      8 C         143.7794  142.2416  165.8021 C.ar    1  UNL1       -0.0191
      9 C         143.2283  140.8950  165.4374 C.ar    1  UNL1        0.0342
     10 C         142.5307  140.0644  166.4735 C.ar    1  UNL1        0.1555
     11 C         142.3843  140.5804  167.8744 C.ar    1  UNL1        0.1151
     12 N         141.6867  139.7498  168.9104 N.ar    1  UNL1       -0.2408
     13 C         141.5403  140.2658  170.3112 C.ar    1  UNL1        0.0989
     14 C         142.0914  141.6123  170.6760 C.ar    1  UNL1        0.0207
     15 C         142.7890  142.4429  169.6399 C.ar    1  UNL1        0.0032
     16 C         142.9354  141.9269  168.2391 C.ar    1  UNL1        0.0204
     17 C         143.6330  142.7575  167.2029 C.ar    1  UNL1       -0.0026
     18 C         144.4770  143.0722  164.7660 C.3     1  UNL1        0.0265
     19 C         143.9342  144.4206  164.3957 C.3     1  UNL1        0.0047
     20 C         141.6582  145.3468  163.5520 C.3     1  UNL1        0.0000
     21 C         142.9018  144.5425  163.3144 C.3     1  UNL1        0.0003
     22 C         137.7979  138.2459  161.8320 C.3     1  UNL1        0.0721
     23 C         137.7602  139.2377  160.7073 C.3     1  UNL1        0.0188
     24 C         138.6301  140.4587  160.7545 C.3     1  UNL1        0.0202
     25 C         138.0346  141.7907  161.1023 C.3     1  UNL1        0.0911
     26 N         137.4251  142.0096  162.4553 N.3     1  UNL1       -0.1833
     27 H         137.6706  141.1988  163.0235 H       1  UNL1        0.1484
     28 S         137.7903  143.2251  163.2547 S.O2    1  UNL1        0.0426
     29 C         138.1556  144.4408  164.0541 C.3     1  UNL1        0.1957
     30 O         137.6112  142.4448  164.5231 O.2     1  UNL1       -0.1575
     31 O         137.9695  144.0055  161.9863 O.2     1  UNL1       -0.1575
@<TRIPOS>BOND
     1    20    21    1
     2    21    19    1
     3    19    18    1
     4    18     8    1
     5     8     9   ar
     6     9    10   ar
     7    10     7    1
     8     7     1    1
     9     1     2    1
    10     2     3    1
    11     3     4    1
    12     4    22    1
    13    22    23    1
    14    23    24    1
    15    24    25    1
    16    25    26    1
    17    26    28    1
    18    28    29    1
    19    28    30    2
    20    28    31    2
    21     4     5    1
    22     5     6    1
    23    10    11   ar
    24    11    12   ar
    25    12    13   ar
    26    13    14   ar
    27    14    15   ar
    28    15    16   ar
    29    16    17   ar
    30    17     8   ar
    31     6     1    1
    32    16    11   ar
    33    26    27    1
@<TRIPOS>MOLECULE
*****
 31 33 0 0 0
SMALL
GASTEIGER

@<TRIPOS>ATOM
      1 C         143.7136  140.3013  164.9406 C.3     1  UNL1        0.1688
      2 C         144.1692  139.6067  163.6916 C.3     1  UNL1        0.0609
      3 C         144.5563  140.4100  162.4854 C.3     1  UNL1        0.0758
      4 N         144.4879  141.9078  162.5282 N.3     1  UNL1       -0.2724
      5 C         144.0324  142.6024  163.7772 C.3     1  UNL1        0.0758
      6 C         143.6452  141.7991  164.9834 C.3     1  UNL1        0.0609
      7 O         143.3265  139.4981  166.1468 O.3     1  UNL1       -0.4776
      8 C         139.3742  139.6711  166.4616 C.ar    1  UNL1       -0.0191
      9 C         140.7435  139.5205  165.8681 C.ar    1  UNL1        0.0342
     10 C         141.9571  139.6486  166.7403 C.ar    1  UNL1        0.1555
     11 C         141.8015  139.9273  168.2060 C.ar    1  UNL1        0.1151
     12 N         143.0151  140.0554  169.0781 N.ar    1  UNL1       -0.2408
     13 C         142.8594  140.3341  170.5437 C.ar    1  UNL1        0.0989
     14 C         141.4900  140.4846  171.1372 C.ar    1  UNL1        0.0207
     15 C         140.2764  140.3565  170.2650 C.ar    1  UNL1        0.0032
     16 C         140.4321  140.0779  168.7994 C.ar    1  UNL1        0.0204
     17 C         139.2184  139.9498  167.9272 C.ar    1  UNL1       -0.0026
     18 C         138.1605  139.5430  165.5894 C.3     1  UNL1        0.0265
     19 C         138.0787  140.3071  164.3012 C.3     1  UNL1        0.0047
     20 C         138.8539  142.7560  164.6914 C.3     1  UNL1        0.0000
     21 C         137.7802  141.7770  164.3188 C.3     1  UNL1        0.0003
     22 C         144.8750  142.7110  161.3220 C.3     1  UNL1        0.0721
     23 C         144.1396  142.5233  160.0282 C.3     1  UNL1        0.0188
     24 C         142.6640  142.7837  159.9597 C.3     1  UNL1        0.0202
     25 C         142.0527  143.8618  160.8046 C.3     1  UNL1        0.0911
     26 N         141.8676  145.2404  160.2431 N.3     1  UNL1       -0.1833
     27 H         142.8001  145.6147  160.0680 H       1  UNL1        0.1484
     28 S         141.0784  145.4372  158.9828 S.O2    1  UNL1        0.0426
     29 C         140.2891  145.6341  157.7225 C.3     1  UNL1        0.1957
     30 O         142.3203  145.8941  158.2765 O.2     1  UNL1       -0.1575
     31 O         139.8365  144.9804  159.6892 O.2     1  UNL1       -0.1575
@<TRIPOS>BOND
     1    20    21    1
     2    21    19    1
     3    19    18    1
     4    18     8    1
     5     8     9   ar
     6     9    10   ar
     7    10     7    1
     8     7     1    1
     9     1     2    1
    10     2     3    1
    11     3     4    1
    12     4    22    1
    13    22    23    1
    14    23    24    1
    15    24    25    1
    16    25    26    1
    17    26    28    1
    18    28    29    1
    19    28    30    2
    20    28    31    2
    21     4     5    1
    22     5     6    1
    23    10    11   ar
    24    11    12   ar
    25    12    13   ar
    26    13    14   ar
    27    14    15   ar
    28    15    16   ar
    29    16    17   ar
    30    17     8   ar
    31     6     1    1
    32    16    11   ar
    33    26    27    1
@<TRIPOS>MOLECULE
*****
 31 33 0 0 0
SMALL
GASTEIGER

@<TRIPOS>ATOM
      1 C         139.3799  142.5687  165.2420 C.3     1  UNL1        0.1688
      2 C         138.2485  142.8699  164.3042 C.3     1  UNL1        0.0609
      3 C         138.3829  143.9728  163.2966 C.3     1  UNL1        0.0758
      4 N         139.6487  144.7746  163.2265 N.3     1  UNL1       -0.2724
      5 C         140.7801  144.4735  164.1642 C.3     1  UNL1        0.0758
      6 C         140.6457  143.3705  165.1720 C.3     1  UNL1        0.0609
      7 O         139.2455  141.4658  166.2497 O.3     1  UNL1       -0.4776
      8 C         142.5425  139.2588  166.3425 C.ar    1  UNL1       -0.0191
      9 C         141.3192  139.9584  165.8286 C.ar    1  UNL1        0.0342
     10 C         140.4688  140.7662  166.7636 C.ar    1  UNL1        0.1555
     11 C         140.8416  140.8744  168.2125 C.ar    1  UNL1        0.1151
     12 N         139.9912  141.6821  169.1475 N.ar    1  UNL1       -0.2408
     13 C         140.3640  141.7903  170.5963 C.ar    1  UNL1        0.0989
     14 C         141.5873  141.0907  171.1102 C.ar    1  UNL1        0.0207
     15 C         142.4378  140.2829  170.1752 C.ar    1  UNL1        0.0032
     16 C         142.0649  140.1748  168.7264 C.ar    1  UNL1        0.0204
     17 C         142.9154  139.3670  167.7913 C.ar    1  UNL1       -0.0026
     18 C         143.3930  138.4510  165.4074 C.3     1  UNL1        0.0265
     19 C         144.2881  139.1418  164.4217 C.3     1  UNL1        0.0047
     20 C         142.8101  138.2732  162.4695 C.3     1  UNL1        0.0000
     21 C         144.0105  139.0324  162.9517 C.3     1  UNL1        0.0003
     22 C         139.7831  145.8775  162.2188 C.3     1  UNL1        0.0721
     23 C         140.2339  145.5666  160.8223 C.3     1  UNL1        0.0188
     24 C         140.3204  144.1417  160.3618 C.3     1  UNL1        0.0202
     25 C         141.6553  143.4644  160.2655 C.3     1  UNL1        0.0911
     26 N         142.8764  144.1302  160.8274 N.3     1  UNL1       -0.1833
     27 H         142.5898  145.0593  161.1355 H       1  UNL1        0.1484
     28 S         143.6129  143.5021  161.9733 S.O2    1  UNL1        0.0426
     29 C         144.3495  142.8740  163.1193 C.3     1  UNL1        0.1957
     30 O         143.2510  142.1402  161.4594 O.2     1  UNL1       -0.1575
     31 O         143.9748  144.8640  162.4872 O.2     1  UNL1       -0.1575
@<TRIPOS>BOND
     1    20    21    1
     2    21    19    1
     3    19    18    1
     4    18     8    1
     5     8     9   ar
     6     9    10   ar
     7    10     7    1
     8     7     1    1
     9     1     2    1
    10     2     3    1
    11     3     4    1
    12     4    22    1
    13    22    23    1
    14    23    24    1
    15    24    25    1
    16    25    26    1
    17    26    28    1
    18    28    29    1
    19    28    30    2
    20    28    31    2
    21     4     5    1
    22     5     6    1
    23    10    11   ar
    24    11    12   ar
    25    12    13   ar
    26    13    14   ar
    27    14    15   ar
    28    15    16   ar
    29    16    17   ar
    30    17     8   ar
    31     6     1    1
    32    16    11   ar
    33    26    27    1
@<TRIPOS>MOLECULE
*****
 31 33 0 0 0
SMALL
GASTEIGER

@<TRIPOS>ATOM
      1 C         139.2819  139.6214  165.2994 C.3     1  UNL1        0.1688
      2 C         138.3498  140.7041  164.8422 C.3     1  UNL1        0.0609
      3 C         137.7572  140.6516  163.4653 C.3     1  UNL1        0.0758
      4 N         138.0965  139.5163  162.5456 N.3     1  UNL1       -0.2724
      5 C         139.0285  138.4336  163.0027 C.3     1  UNL1        0.0758
      6 C         139.6212  138.4861  164.3797 C.3     1  UNL1        0.0609
      7 O         139.8746  139.6739  166.6763 O.3     1  UNL1       -0.4776
      8 C         142.9965  142.0641  166.1374 C.ar    1  UNL1       -0.0191
      9 C         141.8584  141.1316  165.8458 C.ar    1  UNL1        0.0342
     10 C         141.0127  140.6065  166.9679 C.ar    1  UNL1        0.1555
     11 C         141.3051  141.0140  168.3816 C.ar    1  UNL1        0.1151
     12 N         140.4595  140.4889  169.5037 N.ar    1  UNL1       -0.2408
     13 C         140.7519  140.8964  170.9173 C.ar    1  UNL1        0.0989
     14 C         141.8900  141.8290  171.2088 C.ar    1  UNL1        0.0207
     15 C         142.7357  142.3541  170.0868 C.ar    1  UNL1        0.0032
     16 C         142.4433  141.9466  168.6732 C.ar    1  UNL1        0.0204
     17 C         143.2890  142.4716  167.5510 C.ar    1  UNL1       -0.0026
     18 C         143.8422  142.5892  165.0152 C.3     1  UNL1        0.0265
     19 C         144.1205  141.7276  163.8193 C.3     1  UNL1        0.0047
     20 C         145.0657  139.3808  164.4101 C.3     1  UNL1        0.0000
     21 C         145.2630  140.7560  163.8444 C.3     1  UNL1        0.0003
     22 C         137.5038  139.4637  161.1687 C.3     1  UNL1        0.0721
     23 C         138.2209  140.1062  160.0184 C.3     1  UNL1        0.0188
     24 C         139.0592  141.3290  160.2460 C.3     1  UNL1        0.0202
     25 C         138.4030  142.6390  160.5673 C.3     1  UNL1        0.0911
     26 N         139.2293  143.7921  161.0548 N.3     1  UNL1       -0.1833
     27 H         138.9113  144.6177  160.5471 H       1  UNL1        0.1484
     28 S         139.2289  144.1525  162.5109 S.O2    1  UNL1        0.0426
     29 C         139.2284  144.5129  163.9670 C.3     1  UNL1        0.1957
     30 O         140.7155  143.9590  162.5592 O.2     1  UNL1       -0.1575
     31 O         137.7422  144.3460  162.4626 O.2     1  UNL1       -0.1575
@<TRIPOS>BOND
     1    20    21    1
     2    21    19    1
     3    19    18    1
     4    18     8    1
     5     8     9   ar
     6     9    10   ar
     7    10     7    1
     8     7     1    1
     9     1     2    1
    10     2     3    1
    11     3     4    1
    12     4    22    1
    13    22    23    1
    14    23    24    1
    15    24    25    1
    16    25    26    1
    17    26    28    1
    18    28    29    1
    19    28    30    2
    20    28    31    2
    21     4     5    1
    22     5     6    1
    23    10    11   ar
    24    11    12   ar
    25    12    13   ar
    26    13    14   ar
    27    14    15   ar
    28    15    16   ar
    29    16    17   ar
    30    17     8   ar
    31     6     1    1
    32    16    11   ar
    33    26    27    1
@<TRIPOS>MOLECULE
*****
 31 33 0 0 0
SMALL
GASTEIGER

@<TRIPOS>ATOM
      1 C         139.5679  138.5106  161.6507 C.3     1  UNL1        0.1688
      2 C         140.3325  138.6152  160.3643 C.3     1  UNL1        0.0609
      3 C         139.7850  139.4306  159.2306 C.3     1  UNL1        0.0758
      4 N         138.4730  140.1414  159.3831 N.3     1  UNL1       -0.2724
      5 C         137.7084  140.0369  160.6694 C.3     1  UNL1        0.0758
      6 C         138.2559  139.2215  161.8032 C.3     1  UNL1        0.0609
      7 O         140.1154  137.6953  162.7844 O.3     1  UNL1       -0.4776
      8 C         143.2638  139.2115  164.6655 C.ar    1  UNL1       -0.0191
      9 C         142.4231  138.5579  163.6090 C.ar    1  UNL1        0.0342
     10 C         140.9560  138.3489  163.8408 C.ar    1  UNL1        0.1555
     11 C         140.3294  138.7936  165.1292 C.ar    1  UNL1        0.1151
     12 N         138.8623  138.5846  165.3610 N.ar    1  UNL1       -0.2408
     13 C         138.2358  139.0292  166.6493 C.ar    1  UNL1        0.0989
     14 C         139.0764  139.6828  167.7058 C.ar    1  UNL1        0.0207
     15 C         140.5436  139.8918  167.4739 C.ar    1  UNL1        0.0032
     16 C         141.1701  139.4472  166.1857 C.ar    1  UNL1        0.0204
     17 C         142.6373  139.6562  165.9538 C.ar    1  UNL1       -0.0026
     18 C         144.7310  139.4205  164.4336 C.3     1  UNL1        0.0265
     19 C         145.2070  140.6292  163.6835 C.3     1  UNL1        0.0047
     20 C         144.5867  142.8484  164.8836 C.3     1  UNL1        0.0000
     21 C         144.4153  141.9022  163.7324 C.3     1  UNL1        0.0003
     22 C         137.9255  140.9568  158.2494 C.3     1  UNL1        0.0721
     23 C         138.2651  142.4139  158.1410 C.3     1  UNL1        0.0188
     24 C         139.2477  143.0278  159.0936 C.3     1  UNL1        0.0202
     25 C         140.0109  144.2562  158.6955 C.3     1  UNL1        0.0911
     26 N         139.9771  145.4759  159.5681 N.3     1  UNL1       -0.1833
     27 H         139.0084  145.7943  159.5916 H       1  UNL1        0.1484
     28 S         140.4401  145.3922  160.9923 S.O2    1  UNL1        0.0426
     29 C         140.9031  145.3086  162.4167 C.3     1  UNL1        0.1957
     30 O         141.7981  144.9588  160.5254 O.2     1  UNL1       -0.1575
     31 O         139.0822  145.8257  161.4592 O.2     1  UNL1       -0.1575
@<TRIPOS>BOND
     1    20    21    1
     2    21    19    1
     3    19    18    1
     4    18     8    1
     5     8     9   ar
     6     9    10   ar
     7    10     7    1
     8     7     1    1
     9     1     2    1
    10     2     3    1
    11     3     4    1
    12     4    22    1
    13    22    23    1
    14    23    24    1
    15    24    25    1
    16    25    26    1
    17    26    28    1
    18    28    29    1
    19    28    30    2
    20    28    31    2
    21     4     5    1
    22     5     6    1
    23    10    11   ar
    24    11    12   ar
    25    12    13   ar
    26    13    14   ar
    27    14    15   ar
    28    15    16   ar
    29    16    17   ar
    30    17     8   ar
    31     6     1    1
    32    16    11   ar
    33    26    27    1
@<TRIPOS>MOLECULE
*****
 31 33 0 0 0
SMALL
GASTEIGER

@<TRIPOS>ATOM
      1 C         142.7001  143.6254  163.9780 C.3     1  UNL1        0.1688
      2 C         143.3140  143.3576  162.6358 C.3     1  UNL1        0.0609
      3 C         142.6518  143.8721  161.3921 C.3     1  UNL1        0.0758
      4 N         141.3757  144.6543  161.4906 N.3     1  UNL1       -0.2724
      5 C         140.7619  144.9222  162.8328 C.3     1  UNL1        0.0758
      6 C         141.4241  144.4077  164.0765 C.3     1  UNL1        0.0609
      7 O         143.3624  143.1109  165.2217 O.3     1  UNL1       -0.4776
      8 C         142.4023  139.2607  165.2858 C.ar    1  UNL1       -0.0191
      9 C         142.7326  140.6308  164.7722 C.ar    1  UNL1        0.0342
     10 C         143.0321  141.7409  165.7354 C.ar    1  UNL1        0.1555
     11 C         143.0013  141.4810  167.2125 C.ar    1  UNL1        0.1151
     12 N         143.3008  142.5911  168.1757 N.ar    1  UNL1       -0.2408
     13 C         143.2701  142.3311  169.6527 C.ar    1  UNL1        0.0989
     14 C         142.9398  140.9611  170.1664 C.ar    1  UNL1        0.0207
     15 C         142.6403  139.8510  169.2031 C.ar    1  UNL1        0.0032
     16 C         142.6711  140.1109  167.7261 C.ar    1  UNL1        0.0204
     17 C         142.3716  139.0008  166.7628 C.ar    1  UNL1       -0.0026
     18 C         142.1028  138.1506  164.3225 C.3     1  UNL1        0.0265
     19 C         140.8864  137.2951  164.5187 C.3     1  UNL1        0.0047
     20 C         138.7210  138.2876  165.5561 C.3     1  UNL1        0.0000
     21 C         139.5183  137.8868  164.3504 C.3     1  UNL1        0.0003
     22 C         140.7135  145.1688  160.2470 C.3     1  UNL1        0.0721
     23 C         140.1801  144.2058  159.2280 C.3     1  UNL1        0.0188
     24 C         139.1363  143.2020  159.6190 C.3     1  UNL1        0.0202
     25 C         139.5472  141.8689  160.1702 C.3     1  UNL1        0.0911
     26 N         138.6317  141.1265  161.0981 N.3     1  UNL1       -0.1833
     27 H         138.8761  140.1389  161.0252 H       1  UNL1        0.1484
     28 S         138.6133  141.4612  162.5601 S.O2    1  UNL1        0.0426
     29 C         138.5949  141.7959  164.0223 C.3     1  UNL1        0.1957
     30 O         137.1143  141.5065  162.5309 O.2     1  UNL1       -0.1575
     31 O         140.1123  141.4159  162.5894 O.2     1  UNL1       -0.1575
@<TRIPOS>BOND
     1    20    21    1
     2    21    19    1
     3    19    18    1
     4    18     8    1
     5     8     9   ar
     6     9    10   ar
     7    10     7    1
     8     7     1    1
     9     1     2    1
    10     2     3    1
    11     3     4    1
    12     4    22    1
    13    22    23    1
    14    23    24    1
    15    24    25    1
    16    25    26    1
    17    26    28    1
    18    28    29    1
    19    28    30    2
    20    28    31    2
    21     4     5    1
    22     5     6    1
    23    10    11   ar
    24    11    12   ar
    25    12    13   ar
    26    13    14   ar
    27    14    15   ar
    28    15    16   ar
    29    16    17   ar
    30    17     8   ar
    31     6     1    1
    32    16    11   ar
    33    26    27    1
