@<TRIPOS>MOLECULE
*****
 31 34 0 0 0
SMALL
GASTEIGER

@<TRIPOS>ATOM
      1 N         144.2385  139.8280  163.8844 N.3     1  UNL1       -0.2700
      2 C         143.4262  139.3880  162.7025 C.3     1  UNL1        0.0897
      3 C         142.2723  138.4489  162.8934 C.3     1  UNL1        0.0897
      4 N         141.9305  137.9498  164.2659 N.3     1  UNL1       -0.2700
      5 C         142.7427  138.3897  165.4478 C.3     1  UNL1        0.0897
      6 C         143.8967  139.3288  165.2570 C.3     1  UNL1        0.0897
      7 C         145.3925  140.7671  163.6937 C.3     1  UNL1        0.0769
      8 C         145.2562  142.2106  164.0780 C.3     1  UNL1        0.0438
      9 C         142.7309  144.1014  161.6700 C.ar    1  UNL1        0.1479
     10 C         143.9121  143.3074  162.1441 C.ar    1  UNL1        0.0334
     11 C         144.0751  143.0045  163.6041 C.ar    1  UNL1       -0.0177
     12 C         143.0569  143.4956  164.5901 C.ar    1  UNL1       -0.0033
     13 C         141.8758  144.2895  164.1161 C.ar    1  UNL1        0.0130
     14 C         141.7128  144.5924  162.6561 C.ar    1  UNL1        0.1023
     15 C         141.9514  143.3863  159.2971 C.3     1  UNL1        0.2525
     16 O         142.5680  144.4043  160.2100 O.3     1  UNL1       -0.4708
     17 C         140.5317  145.3863  162.1822 C.1     1  UNL1        0.1035
     18 N         139.3506  146.1803  161.7083 N.1     1  UNL1       -0.1907
     19 C         140.7765  137.0107  164.4567 C.3     1  UNL1        0.0769
     20 C         139.4332  137.5447  164.8572 C.3     1  UNL1        0.0433
     21 C         139.1513  139.0148  164.7603 C.ar    1  UNL1       -0.0249
     22 C         139.5026  139.9227  165.9013 C.ar    1  UNL1       -0.0043
     23 C         139.2206  141.3928  165.8044 C.ar    1  UNL1        0.0059
     24 C         138.5873  141.9549  164.5663 C.ar    1  UNL1        0.0748
     25 C         138.2359  141.0470  163.4251 C.ar    1  UNL1        0.0233
     26 C         138.5179  139.5769  163.5221 C.ar    1  UNL1       -0.0260
     27 C         138.1665  138.6689  162.3810 C.3     1  UNL1        0.0305
     28 C         137.6247  141.8823  162.3394 C.3     1  UNL1        0.2352
     29 O         137.5984  143.3064  162.8096 O.3     1  UNL1       -0.4404
     30 C         138.1933  143.3513  164.1859 C.2     1  UNL1        0.3413
     31 O         138.3641  144.5774  165.0329 O.2     1  UNL1       -0.2449
@<TRIPOS>BOND
     1    15    16    1
     2    16     9    1
     3     9    10   ar
     4    10    11   ar
     5    11     8    1
     6     8     7    1
     7     7     1    1
     8     1     2    1
     9     2     3    1
    10     3     4    1
    11     4    19    1
    12    19    20    1
    13    20    21    1
    14    21    22   ar
    15    22    23   ar
    16    23    24   ar
    17    24    25   ar
    18    25    26   ar
    19    26    27    1
    20    25    28    1
    21    28    29    1
    22    29    30    1
    23    30    31    2
    24     4     5    1
    25     5     6    1
    26    11    12   ar
    27    12    13   ar
    28    13    14   ar
    29    14    17    1
    30    17    18    3
    31    14     9   ar
    32     6     1    1
    33    26    21   ar
    34    30    24    1
@<TRIPOS>MOLECULE
*****
 31 34 0 0 0
SMALL
GASTEIGER

@<TRIPOS>ATOM
      1 N         144.1650  139.7661  164.0260 N.3     1  UNL1       -0.2700
      2 C         143.6130  138.9976  162.8620 C.3     1  UNL1        0.0897
      3 C         142.4740  138.0432  163.0659 C.3     1  UNL1        0.0897
      4 N         141.8869  137.8570  164.4336 N.3     1  UNL1       -0.2700
      5 C         142.4389  138.6254  165.5976 C.3     1  UNL1        0.0897
      6 C         143.5780  139.5799  165.3937 C.3     1  UNL1        0.0897
      7 C         145.3041  140.7206  163.8223 C.3     1  UNL1        0.0769
      8 C         145.1506  142.1635  164.2023 C.3     1  UNL1        0.0438
      9 C         142.7114  144.0623  161.7132 C.ar    1  UNL1        0.1479
     10 C         143.8782  143.2716  162.2267 C.ar    1  UNL1        0.0334
     11 C         143.9838  142.9542  163.6889 C.ar    1  UNL1       -0.0177
     12 C         142.9228  143.4274  164.6377 C.ar    1  UNL1       -0.0033
     13 C         141.7561  144.2180  164.1242 C.ar    1  UNL1        0.0130
     14 C         141.6504  144.5355  162.6620 C.ar    1  UNL1        0.1023
     15 C         142.7043  143.2800  159.2358 C.3     1  UNL1        0.2525
     16 O         142.6058  144.3797  160.2510 O.3     1  UNL1       -0.4708
     17 C         140.4837  145.3262  162.1486 C.1     1  UNL1        0.1035
     18 N         139.3170  146.1169  161.6352 N.1     1  UNL1       -0.1907
     19 C         140.7479  136.9025  164.6373 C.3     1  UNL1        0.0769
     20 C         139.3423  137.4193  164.7220 C.3     1  UNL1        0.0433
     21 C         138.9713  138.6998  164.0343 C.ar    1  UNL1       -0.0249
     22 C         138.8151  138.7322  162.5429 C.ar    1  UNL1       -0.0043
     23 C         138.4441  140.0126  161.8553 C.ar    1  UNL1        0.0059
     24 C         138.2293  141.2607  162.6591 C.ar    1  UNL1        0.0748
     25 C         138.3855  141.2283  164.1506 C.ar    1  UNL1        0.0233
     26 C         138.7565  139.9479  164.8383 C.ar    1  UNL1       -0.0260
     27 C         138.9127  139.9155  166.3298 C.3     1  UNL1        0.0305
     28 C         138.1121  142.6067  164.6754 C.3     1  UNL1        0.2352
     29 O         137.7869  143.4909  163.5081 O.3     1  UNL1       -0.4404
     30 C         137.8593  142.6590  162.2620 C.2     1  UNL1        0.3413
     31 O         137.6062  143.1410  160.8643 O.2     1  UNL1       -0.2449
@<TRIPOS>BOND
     1    15    16    1
     2    16     9    1
     3     9    10   ar
     4    10    11   ar
     5    11     8    1
     6     8     7    1
     7     7     1    1
     8     1     2    1
     9     2     3    1
    10     3     4    1
    11     4    19    1
    12    19    20    1
    13    20    21    1
    14    21    22   ar
    15    22    23   ar
    16    23    24   ar
    17    24    25   ar
    18    25    26   ar
    19    26    27    1
    20    25    28    1
    21    28    29    1
    22    29    30    1
    23    30    31    2
    24     4     5    1
    25     5     6    1
    26    11    12   ar
    27    12    13   ar
    28    13    14   ar
    29    14    17    1
    30    17    18    3
    31    14     9   ar
    32     6     1    1
    33    26    21   ar
    34    30    24    1
@<TRIPOS>MOLECULE
*****
 31 34 0 0 0
SMALL
GASTEIGER

@<TRIPOS>ATOM
      1 N         137.8865  140.6394  161.4538 N.3     1  UNL1       -0.2700
      2 C         137.3677  141.0759  162.7918 C.3     1  UNL1        0.0897
      3 C         137.6035  142.4792  163.2662 C.3     1  UNL1        0.0897
      4 N         138.3581  143.4461  162.4027 N.3     1  UNL1       -0.2700
      5 C         138.8770  143.0096  161.0646 C.3     1  UNL1        0.0897
      6 C         138.6412  141.6062  160.5902 C.3     1  UNL1        0.0897
      7 C         137.6508  139.2361  160.9793 C.3     1  UNL1        0.0769
      8 C         137.8898  138.0809  161.9058 C.3     1  UNL1        0.0438
      9 C         141.6755  137.9722  163.0919 C.ar    1  UNL1        0.1479
     10 C         140.4691  137.9813  162.2004 C.ar    1  UNL1        0.0334
     11 C         139.0960  138.0719  162.7974 C.ar    1  UNL1       -0.0177
     12 C         138.9293  138.1534  164.2858 C.ar    1  UNL1       -0.0033
     13 C         140.1356  138.1443  165.1773 C.ar    1  UNL1        0.0130
     14 C         141.5087  138.0537  164.5803 C.ar    1  UNL1        0.1023
     15 C         143.6581  139.0803  161.8304 C.3     1  UNL1        0.2525
     16 O         143.0486  137.8816  162.4949 O.3     1  UNL1       -0.4708
     17 C         142.7150  138.0446  165.4719 C.1     1  UNL1        0.1035
     18 N         143.9213  138.0356  166.3633 N.1     1  UNL1       -0.1907
     19 C         138.5938  144.8494  162.8772 C.3     1  UNL1        0.0769
     20 C         139.7097  145.1391  163.8368 C.3     1  UNL1        0.0433
     21 C         141.0004  144.3813  163.7371 C.ar    1  UNL1       -0.0249
     22 C         141.9447  144.6541  162.6040 C.ar    1  UNL1       -0.0043
     23 C         143.2353  143.8963  162.5043 C.ar    1  UNL1        0.0059
     24 C         143.5817  142.8658  163.5377 C.ar    1  UNL1        0.0748
     25 C         142.6375  142.5929  164.6709 C.ar    1  UNL1        0.0233
     26 C         141.3468  143.3507  164.7706 C.ar    1  UNL1       -0.0260
     27 C         140.4025  143.0780  165.9037 C.3     1  UNL1        0.0305
     28 C         143.2445  141.5267  165.5337 C.3     1  UNL1        0.2352
     29 O         144.5640  141.1405  164.9339 O.3     1  UNL1       -0.4404
     30 C         144.7724  141.9681  163.7003 C.2     1  UNL1        0.3413
     31 O         145.9626  141.9084  162.7893 O.2     1  UNL1       -0.2449
@<TRIPOS>BOND
     1    15    16    1
     2    16     9    1
     3     9    10   ar
     4    10    11   ar
     5    11     8    1
     6     8     7    1
     7     7     1    1
     8     1     2    1
     9     2     3    1
    10     3     4    1
    11     4    19    1
    12    19    20    1
    13    20    21    1
    14    21    22   ar
    15    22    23   ar
    16    23    24   ar
    17    24    25   ar
    18    25    26   ar
    19    26    27    1
    20    25    28    1
    21    28    29    1
    22    29    30    1
    23    30    31    2
    24     4     5    1
    25     5     6    1
    26    11    12   ar
    27    12    13   ar
    28    13    14   ar
    29    14    17    1
    30    17    18    3
    31    14     9   ar
    32     6     1    1
    33    26    21   ar
    34    30    24    1
@<TRIPOS>MOLECULE
*****
 31 34 0 0 0
SMALL
GASTEIGER

@<TRIPOS>ATOM
      1 N         138.0700  143.1006  162.6996 N.3     1  UNL1       -0.2700
      2 C         138.3402  142.6415  161.2974 C.3     1  UNL1        0.0897
      3 C         138.2262  141.1869  160.9494 C.3     1  UNL1        0.0897
      4 N         137.8419  140.1914  162.0036 N.3     1  UNL1       -0.2700
      5 C         137.5717  140.6504  163.4058 C.3     1  UNL1        0.0897
      6 C         137.6857  142.1051  163.7538 C.3     1  UNL1        0.0897
      7 C         138.1840  144.5552  163.0476 C.3     1  UNL1        0.0769
      8 C         139.3315  145.0385  163.8841 C.3     1  UNL1        0.0438
      9 C         142.5579  142.8849  164.7223 C.ar    1  UNL1        0.1479
     10 C         141.2094  143.5286  164.8553 C.ar    1  UNL1        0.0334
     11 C         140.6798  144.3949  163.7511 C.ar    1  UNL1       -0.0177
     12 C         141.4985  144.6175  162.5141 C.ar    1  UNL1       -0.0033
     13 C         142.8468  143.9738  162.3813 C.ar    1  UNL1        0.0130
     14 C         143.3765  143.1075  163.4853 C.ar    1  UNL1        0.1023
     15 C         142.2120  141.6735  166.9945 C.3     1  UNL1        0.2525
     16 O         143.0875  142.0186  165.8264 O.3     1  UNL1       -0.4708
     17 C         144.7249  142.4639  163.3524 C.1     1  UNL1        0.1035
     18 N         146.0732  141.8202  163.2193 N.1     1  UNL1       -0.1907
     19 C         137.7279  138.7368  161.6555 C.3     1  UNL1        0.0769
     20 C         138.9604  137.8855  161.5771 C.3     1  UNL1        0.0433
     21 C         140.0378  138.0285  162.6111 C.ar    1  UNL1       -0.0249
     22 C         139.7347  137.7498  164.0534 C.ar    1  UNL1       -0.0043
     23 C         140.8120  137.8928  165.0874 C.ar    1  UNL1        0.0059
     24 C         142.1923  138.3145  164.6789 C.ar    1  UNL1        0.0748
     25 C         142.4954  138.5932  163.2366 C.ar    1  UNL1        0.0233
     26 C         141.4181  138.4502  162.2026 C.ar    1  UNL1       -0.0260
     27 C         141.7212  138.7289  160.7602 C.3     1  UNL1        0.0305
     28 C         143.9385  138.9894  163.1343 C.3     1  UNL1        0.2352
     29 O         144.5273  138.9556  164.5134 O.3     1  UNL1       -0.4404
     30 C         143.4481  138.5385  165.4681 C.2     1  UNL1        0.3413
     31 O         143.5984  138.3742  166.9515 O.2     1  UNL1       -0.2449
@<TRIPOS>BOND
     1    15    16    1
     2    16     9    1
     3     9    10   ar
     4    10    11   ar
     5    11     8    1
     6     8     7    1
     7     7     1    1
     8     1     2    1
     9     2     3    1
    10     3     4    1
    11     4    19    1
    12    19    20    1
    13    20    21    1
    14    21    22   ar
    15    22    23   ar
    16    23    24   ar
    17    24    25   ar
    18    25    26   ar
    19    26    27    1
    20    25    28    1
    21    28    29    1
    22    29    30    1
    23    30    31    2
    24     4     5    1
    25     5     6    1
    26    11    12   ar
    27    12    13   ar
    28    13    14   ar
    29    14    17    1
    30    17    18    3
    31    14     9   ar
    32     6     1    1
    33    26    21   ar
    34    30    24    1
@<TRIPOS>MOLECULE
*****
 31 34 0 0 0
SMALL
GASTEIGER

@<TRIPOS>ATOM
      1 N         143.2910  139.0650  161.5435 N.3     1  UNL1       -0.2700
      2 C         143.7273  138.7468  162.9430 C.3     1  UNL1        0.0897
      3 C         144.5151  139.7519  163.7298 C.3     1  UNL1        0.0897
      4 N         144.8666  141.0752  163.1173 N.3     1  UNL1       -0.2700
      5 C         144.4304  141.3935  161.7178 C.3     1  UNL1        0.0897
      6 C         143.6426  140.3883  160.9310 C.3     1  UNL1        0.0897
      7 C         142.5033  138.0599  160.7566 C.3     1  UNL1        0.0769
      8 C         141.0064  138.0393  160.8517 C.3     1  UNL1        0.0438
      9 C         138.6963  139.3764  163.7887 C.ar    1  UNL1        0.1479
     10 C         139.3643  139.2631  162.4503 C.ar    1  UNL1        0.0334
     11 C         140.3385  138.1525  162.1900 C.ar    1  UNL1       -0.0177
     12 C         140.6445  137.1553  163.2679 C.ar    1  UNL1       -0.0033
     13 C         139.9765  137.2686  164.6061 C.ar    1  UNL1        0.0130
     14 C         139.0024  138.3792  164.8665 C.ar    1  UNL1        0.1023
     15 C         137.3106  141.4006  162.9329 C.3     1  UNL1        0.2525
     16 O         137.7222  140.4870  164.0490 O.3     1  UNL1       -0.4708
     17 C         138.3344  138.4924  166.2048 C.1     1  UNL1        0.1035
     18 N         137.6663  138.6057  167.5430 N.1     1  UNL1       -0.1907
     19 C         145.6544  142.0803  163.9042 C.3     1  UNL1        0.0769
     20 C         144.9431  143.1031  164.7395 C.3     1  UNL1        0.0433
     21 C         143.5861  143.5940  164.3298 C.ar    1  UNL1       -0.0249
     22 C         143.4417  144.4890  163.1348 C.ar    1  UNL1       -0.0043
     23 C         142.0849  144.9799  162.7250 C.ar    1  UNL1        0.0059
     24 C         140.8724  144.5758  163.5103 C.ar    1  UNL1        0.0748
     25 C         141.0168  143.6808  164.7053 C.ar    1  UNL1        0.0233
     26 C         142.3736  143.1899  165.1151 C.ar    1  UNL1       -0.0260
     27 C         142.5181  142.2948  166.3101 C.3     1  UNL1        0.0305
     28 C         139.6506  143.4518  165.2807 C.3     1  UNL1        0.2352
     29 O         138.6619  144.2054  164.4414 O.3     1  UNL1       -0.4404
     30 C         139.4170  144.9000  163.3472 C.2     1  UNL1        0.3413
     31 O         138.8212  145.7667  162.2776 O.2     1  UNL1       -0.2449
@<TRIPOS>BOND
     1    15    16    1
     2    16     9    1
     3     9    10   ar
     4    10    11   ar
     5    11     8    1
     6     8     7    1
     7     7     1    1
     8     1     2    1
     9     2     3    1
    10     3     4    1
    11     4    19    1
    12    19    20    1
    13    20    21    1
    14    21    22   ar
    15    22    23   ar
    16    23    24   ar
    17    24    25   ar
    18    25    26   ar
    19    26    27    1
    20    25    28    1
    21    28    29    1
    22    29    30    1
    23    30    31    2
    24     4     5    1
    25     5     6    1
    26    11    12   ar
    27    12    13   ar
    28    13    14   ar
    29    14    17    1
    30    17    18    3
    31    14     9   ar
    32     6     1    1
    33    26    21   ar
    34    30    24    1
@<TRIPOS>MOLECULE
*****
 31 34 0 0 0
SMALL
GASTEIGER

@<TRIPOS>ATOM
      1 N         141.0395  138.2420  162.5115 N.3     1  UNL1       -0.2700
      2 C         140.9165  137.3717  163.7271 C.3     1  UNL1        0.0897
      3 C         139.9567  137.7402  164.8193 C.3     1  UNL1        0.0897
      4 N         139.1197  138.9788  164.6960 N.3     1  UNL1       -0.2700
      5 C         139.2426  139.8491  163.4805 C.3     1  UNL1        0.0897
      6 C         140.2025  139.4807  162.3882 C.3     1  UNL1        0.0897
      7 C         141.9993  137.8737  161.4193 C.3     1  UNL1        0.0769
      8 C         143.4039  138.3995  161.4463 C.3     1  UNL1        0.0438
      9 C         144.0369  142.1082  162.7092 C.ar    1  UNL1        0.1479
     10 C         143.6846  140.9557  161.8159 C.ar    1  UNL1        0.0334
     11 C         143.7562  139.5519  162.3395 C.ar    1  UNL1       -0.0177
     12 C         144.1800  139.3005  163.7562 C.ar    1  UNL1       -0.0033
     13 C         144.5323  140.4529  164.6494 C.ar    1  UNL1        0.0130
     14 C         144.4608  141.8568  164.1259 C.ar    1  UNL1        0.1023
     15 C         142.6463  144.2238  162.1257 C.3     1  UNL1        0.2525
     16 O         143.9653  143.5121  162.1856 O.3     1  UNL1       -0.4708
     17 C         144.8130  143.0092  165.0191 C.1     1  UNL1        0.1035
     18 N         145.1654  144.1615  165.9124 N.1     1  UNL1       -0.1907
     19 C         138.1599  139.3472  165.7882 C.3     1  UNL1        0.0769
     20 C         138.5432  139.1429  167.2240 C.3     1  UNL1        0.0433
     21 C         139.6567  139.9486  167.8249 C.ar    1  UNL1       -0.0249
     22 C         140.8829  140.2531  167.0166 C.ar    1  UNL1       -0.0043
     23 C         141.9964  141.0588  167.6176 C.ar    1  UNL1        0.0059
     24 C         141.8835  141.5600  169.0268 C.ar    1  UNL1        0.0748
     25 C         140.6572  141.2555  169.8352 C.ar    1  UNL1        0.0233
     26 C         139.5438  140.4498  169.2343 C.ar    1  UNL1       -0.0260
     27 C         138.3174  140.1453  170.0426 C.3     1  UNL1        0.0305
     28 C         140.8276  141.8790  171.1888 C.3     1  UNL1        0.2352
     29 O         142.1593  142.5688  171.2170 O.3     1  UNL1       -0.4404
     30 C         142.8119  142.3717  169.8808 C.2     1  UNL1        0.3413
     31 O         144.1567  142.8945  169.4707 O.2     1  UNL1       -0.2449
@<TRIPOS>BOND
     1    15    16    1
     2    16     9    1
     3     9    10   ar
     4    10    11   ar
     5    11     8    1
     6     8     7    1
     7     7     1    1
     8     1     2    1
     9     2     3    1
    10     3     4    1
    11     4    19    1
    12    19    20    1
    13    20    21    1
    14    21    22   ar
    15    22    23   ar
    16    23    24   ar
    17    24    25   ar
    18    25    26   ar
    19    26    27    1
    20    25    28    1
    21    28    29    1
    22    29    30    1
    23    30    31    2
    24     4     5    1
    25     5     6    1
    26    11    12   ar
    27    12    13   ar
    28    13    14   ar
    29    14    17    1
    30    17    18    3
    31    14     9   ar
    32     6     1    1
    33    26    21   ar
    34    30    24    1
@<TRIPOS>MOLECULE
*****
 31 34 0 0 0
SMALL
GASTEIGER

@<TRIPOS>ATOM
      1 N         138.0586  143.0337  162.5972 N.3     1  UNL1       -0.2700
      2 C         138.4269  142.4875  161.2495 C.3     1  UNL1        0.0897
      3 C         138.3452  141.0124  160.9903 C.3     1  UNL1        0.0897
      4 N         137.8953  140.0833  162.0787 N.3     1  UNL1       -0.2700
      5 C         137.5271  140.6294  163.4263 C.3     1  UNL1        0.0897
      6 C         137.6088  142.1047  163.6855 C.3     1  UNL1        0.0897
      7 C         138.1402  144.5088  162.8565 C.3     1  UNL1        0.0769
      8 C         139.3153  145.0764  163.5962 C.3     1  UNL1        0.0438
      9 C         142.7543  143.7653  162.1114 C.ar    1  UNL1        0.1479
     10 C         141.4143  144.4328  162.2071 C.ar    1  UNL1        0.0334
     11 C         140.6552  144.4090  163.5006 C.ar    1  UNL1       -0.0177
     12 C         141.2359  143.7176  164.6984 C.ar    1  UNL1       -0.0033
     13 C         142.5758  143.0501  164.6027 C.ar    1  UNL1        0.0130
     14 C         143.3350  143.0739  163.3092 C.ar    1  UNL1        0.1023
     15 C         142.8700  143.2829  159.5612 C.3     1  UNL1        0.2525
     16 O         143.5135  143.7892  160.8179 O.3     1  UNL1       -0.4708
     17 C         144.6749  142.4064  163.2137 C.1     1  UNL1        0.1035
     18 N         146.0148  141.7390  163.1181 N.1     1  UNL1       -0.1907
     19 C         137.8137  138.6082  161.8193 C.3     1  UNL1        0.0769
     20 C         138.5193  137.6466  162.7290 C.3     1  UNL1        0.0433
     21 C         139.8826  137.9787  163.2595 C.ar    1  UNL1       -0.0249
     22 C         141.0753  137.9193  162.3520 C.ar    1  UNL1       -0.0043
     23 C         142.4386  138.2514  162.8824 C.ar    1  UNL1        0.0059
     24 C         142.6090  138.6429  164.3203 C.ar    1  UNL1        0.0748
     25 C         141.4161  138.7023  165.2278 C.ar    1  UNL1        0.0233
     26 C         140.0529  138.3702  164.6975 C.ar    1  UNL1       -0.0260
     27 C         138.8600  138.4296  165.6050 C.3     1  UNL1        0.0305
     28 C         141.8896  139.1180  166.5891 C.3     1  UNL1        0.2352
     29 O         143.3750  139.3155  166.5228 O.3     1  UNL1       -0.4404
     30 C         143.8197  139.0219  165.1207 C.2     1  UNL1        0.3413
     31 O         145.2277  139.0945  164.6088 O.2     1  UNL1       -0.2449
@<TRIPOS>BOND
     1    15    16    1
     2    16     9    1
     3     9    10   ar
     4    10    11   ar
     5    11     8    1
     6     8     7    1
     7     7     1    1
     8     1     2    1
     9     2     3    1
    10     3     4    1
    11     4    19    1
    12    19    20    1
    13    20    21    1
    14    21    22   ar
    15    22    23   ar
    16    23    24   ar
    17    24    25   ar
    18    25    26   ar
    19    26    27    1
    20    25    28    1
    21    28    29    1
    22    29    30    1
    23    30    31    2
    24     4     5    1
    25     5     6    1
    26    11    12   ar
    27    12    13   ar
    28    13    14   ar
    29    14    17    1
    30    17    18    3
    31    14     9   ar
    32     6     1    1
    33    26    21   ar
    34    30    24    1
@<TRIPOS>MOLECULE
*****
 31 34 0 0 0
SMALL
GASTEIGER

@<TRIPOS>ATOM
      1 N         144.1963  139.7647  164.0842 N.3     1  UNL1       -0.2700
      2 C         143.4681  139.6991  165.3939 C.3     1  UNL1        0.0897
      3 C         142.2336  138.8571  165.5244 C.3     1  UNL1        0.0897
      4 N         141.7273  138.0806  164.3451 N.3     1  UNL1       -0.2700
      5 C         142.4555  138.1461  163.0353 C.3     1  UNL1        0.0897
      6 C         143.6900  138.9882  162.9049 C.3     1  UNL1        0.0897
      7 C         145.4308  140.6067  163.9536 C.3     1  UNL1        0.0769
      8 C         145.3259  142.1025  163.9918 C.3     1  UNL1        0.0438
      9 C         142.2021  144.4142  163.1868 C.ar    1  UNL1        0.1479
     10 C         143.2927  143.7193  163.9469 C.ar    1  UNL1        0.0334
     11 C         144.2354  142.7974  163.2317 C.ar    1  UNL1       -0.0177
     12 C         144.0874  142.5705  161.7563 C.ar    1  UNL1       -0.0033
     13 C         142.9969  143.2654  160.9963 C.ar    1  UNL1        0.0130
     14 C         142.0542  144.1873  161.7115 C.ar    1  UNL1        0.1023
     15 C         140.1107  144.7738  164.6858 C.3     1  UNL1        0.2525
     16 O         141.2595  145.3361  163.9021 O.3     1  UNL1       -0.4708
     17 C         140.9636  144.8822  160.9514 C.1     1  UNL1        0.1035
     18 N         139.8730  145.5771  160.1914 N.1     1  UNL1       -0.1907
     19 C         140.4928  137.2386  164.4757 C.3     1  UNL1        0.0769
     20 C         139.1768  137.8820  164.7982 C.3     1  UNL1        0.0433
     21 C         138.8334  139.2206  164.2147 C.ar    1  UNL1       -0.0249
     22 C         138.6570  140.4079  165.1142 C.ar    1  UNL1       -0.0043
     23 C         138.3136  141.7464  164.5308 C.ar    1  UNL1        0.0059
     24 C         138.1466  141.8977  163.0478 C.ar    1  UNL1        0.0748
     25 C         138.3229  140.7103  162.1483 C.ar    1  UNL1        0.0233
     26 C         138.6663  139.3718  162.7317 C.ar    1  UNL1       -0.0260
     27 C         138.8427  138.1844  161.8322 C.3     1  UNL1        0.0305
     28 C         138.0972  141.1614  160.7356 C.3     1  UNL1        0.2352
     29 O         137.7813  142.6275  160.7621 O.3     1  UNL1       -0.4404
     30 C         137.8118  143.0826  162.1911 C.2     1  UNL1        0.3413
     31 O         137.5530  144.4776  162.6779 O.2     1  UNL1       -0.2449
@<TRIPOS>BOND
     1    15    16    1
     2    16     9    1
     3     9    10   ar
     4    10    11   ar
     5    11     8    1
     6     8     7    1
     7     7     1    1
     8     1     2    1
     9     2     3    1
    10     3     4    1
    11     4    19    1
    12    19    20    1
    13    20    21    1
    14    21    22   ar
    15    22    23   ar
    16    23    24   ar
    17    24    25   ar
    18    25    26   ar
    19    26    27    1
    20    25    28    1
    21    28    29    1
    22    29    30    1
    23    30    31    2
    24     4     5    1
    25     5     6    1
    26    11    12   ar
    27    12    13   ar
    28    13    14   ar
    29    14    17    1
    30    17    18    3
    31    14     9   ar
    32     6     1    1
    33    26    21   ar
    34    30    24    1
@<TRIPOS>MOLECULE
*****
 31 34 0 0 0
SMALL
GASTEIGER

@<TRIPOS>ATOM
      1 N         138.3911  143.2658  162.6108 N.3     1  UNL1       -0.2700
      2 C         138.8908  142.8257  161.2666 C.3     1  UNL1        0.0897
      3 C         138.6111  141.4342  160.7813 C.3     1  UNL1        0.0897
      4 N         137.8317  140.4828  161.6399 N.3     1  UNL1       -0.2700
      5 C         137.3319  140.9229  162.9840 C.3     1  UNL1        0.0897
      6 C         137.6116  142.3144  163.4694 C.3     1  UNL1        0.0897
      7 C         138.6708  144.6572  163.0962 C.3     1  UNL1        0.0769
      8 C         140.0001  144.9847  163.7091 C.3     1  UNL1        0.0438
      9 C         142.5863  142.6450  165.6032 C.ar    1  UNL1        0.1479
     10 C         141.9918  143.5560  164.5703 C.ar    1  UNL1        0.0334
     11 C         140.5945  144.0738  164.7420 C.ar    1  UNL1       -0.0177
     12 C         139.7916  143.6806  165.9465 C.ar    1  UNL1       -0.0033
     13 C         140.3861  142.7696  166.9793 C.ar    1  UNL1        0.0130
     14 C         141.7834  142.2518  166.8077 C.ar    1  UNL1        0.1023
     15 C         144.8590  142.6773  164.3448 C.3     1  UNL1        0.2525
     16 O         143.9836  142.1272  165.4315 O.3     1  UNL1       -0.4708
     17 C         142.3778  141.3408  167.8405 C.1     1  UNL1        0.1035
     18 N         142.9722  140.4300  168.8735 N.1     1  UNL1       -0.1907
     19 C         137.5520  139.0914  161.1545 C.3     1  UNL1        0.0769
     20 C         138.3970  137.9471  161.6302 C.3     1  UNL1        0.0433
     21 C         139.7630  138.2067  162.1933 C.ar    1  UNL1       -0.0249
     22 C         140.9132  138.4864  161.2721 C.ar    1  UNL1       -0.0043
     23 C         142.2790  138.7461  161.8352 C.ar    1  UNL1        0.0059
     24 C         142.4946  138.7260  163.3194 C.ar    1  UNL1        0.0748
     25 C         141.3444  138.4462  164.2407 C.ar    1  UNL1        0.0233
     26 C         139.9785  138.1866  163.6777 C.ar    1  UNL1       -0.0260
     27 C         138.8282  137.9068  164.5989 C.3     1  UNL1        0.0305
     28 C         141.8573  138.4913  165.6496 C.3     1  UNL1        0.2352
     29 O         143.3245  138.7989  165.5990 O.3     1  UNL1       -0.4404
     30 C         143.7184  138.9439  164.1590 C.2     1  UNL1        0.3413
     31 O         145.0945  139.2527  163.6481 O.2     1  UNL1       -0.2449
@<TRIPOS>BOND
     1    15    16    1
     2    16     9    1
     3     9    10   ar
     4    10    11   ar
     5    11     8    1
     6     8     7    1
     7     7     1    1
     8     1     2    1
     9     2     3    1
    10     3     4    1
    11     4    19    1
    12    19    20    1
    13    20    21    1
    14    21    22   ar
    15    22    23   ar
    16    23    24   ar
    17    24    25   ar
    18    25    26   ar
    19    26    27    1
    20    25    28    1
    21    28    29    1
    22    29    30    1
    23    30    31    2
    24     4     5    1
    25     5     6    1
    26    11    12   ar
    27    12    13   ar
    28    13    14   ar
    29    14    17    1
    30    17    18    3
    31    14     9   ar
    32     6     1    1
    33    26    21   ar
    34    30    24    1
