@<TRIPOS>MOLECULE
*****
 26 28 0 0 0
SMALL
GASTEIGER

@<TRIPOS>ATOM
      1 C         139.4339  141.3046  165.5546 C.ar    1  UNL1        0.1345
      2 C         138.5613  140.1004  165.3583 C.ar    1  UNL1        0.0345
      3 C         138.2449  139.2061  166.5202 C.ar    1  UNL1        0.0045
      4 C         138.8011  139.5159  167.8783 C.ar    1  UNL1        0.0224
      5 C         139.6738  140.7200  168.0746 C.ar    1  UNL1        0.1185
      6 N         139.9901  141.6143  166.9128 N.ar    1  UNL1       -0.2274
      7 C         140.2300  141.0298  169.4328 C.ar    1  UNL1        0.1842
      8 N         139.6492  141.9936  170.4246 N.ar    1  UNL1       -0.1271
      9 N         140.5250  141.9896  171.6424 N.ar    1  UNL1       -0.1255
     10 C         141.6470  141.0233  171.4033 C.ar    1  UNL1        0.2026
     11 N         141.4647  140.4301  170.0377 N.ar    1  UNL1       -0.2935
     12 C         142.3600  139.4153  169.3906 C.3     1  UNL1        0.0886
     13 C         142.8764  138.2541  170.1873 C.3     1  UNL1        0.0246
     14 C         142.7388  139.5617  167.9465 C.3     1  UNL1        0.0246
     15 C         141.1148  142.1660  163.7706 C.2     1  UNL1        0.2567
     16 O         142.1629  141.2386  164.3104 O.2     1  UNL1       -0.2696
     17 N         139.7503  142.1990  164.3927 N.am    1  UNL1       -0.2656
     18 H         139.0624  142.8077  164.0384 H       1  UNL1        0.1566
     19 C         142.7974  143.5271  162.2017 C.ar    1  UNL1        0.2478
     20 N         142.6475  144.4003  160.9913 N.ar    1  UNL1       -0.1313
     21 N         141.1885  144.4733  160.6502 N.ar    1  UNL1       -0.2443
     22 C         140.5870  145.2398  159.5098 C.3     1  UNL1        0.1539
     23 C         140.4368  143.6452  161.6499 C.ar    1  UNL1        0.1045
     24 C         141.4312  143.0604  162.6087 C.ar    1  UNL1        0.1268
     25 C         144.9685  142.1052  162.3234 C.3     1  UNL1        0.2543
     26 O         144.0871  143.1812  162.8851 O.3     1  UNL1       -0.4551
@<TRIPOS>BOND
     1    25    26    1
     2    26    19    1
     3    19    20   ar
     4    20    21   ar
     5    21    22    1
     6    21    23   ar
     7    23    24   ar
     8    24    15    1
     9    15    16    2
    10    15    17   am
    11    17     1    1
    12     1     2   ar
    13     2     3   ar
    14     3     4   ar
    15     4     5   ar
    16     5     7    1
    17     7     8   ar
    18     8     9   ar
    19     9    10   ar
    20    10    11   ar
    21    11    12    1
    22    12    13    1
    23    12    14    1
    24     5     6   ar
    25    24    19   ar
    26     6     1   ar
    27    11     7   ar
    28    17    18    1
@<TRIPOS>MOLECULE
*****
 26 28 0 0 0
SMALL
GASTEIGER

@<TRIPOS>ATOM
      1 C         139.1434  140.6016  165.5960 C.ar    1  UNL1        0.1345
      2 C         138.2174  139.4260  165.6979 C.ar    1  UNL1        0.0345
      3 C         137.9034  138.8327  167.0393 C.ar    1  UNL1        0.0045
      4 C         138.5154  139.4150  168.2788 C.ar    1  UNL1        0.0224
      5 C         139.4414  140.5906  168.1769 C.ar    1  UNL1        0.1185
      6 N         139.7554  141.1839  166.8355 N.ar    1  UNL1       -0.2274
      7 C         140.0534  141.1729  169.4164 C.ar    1  UNL1        0.1842
      8 N         139.3117  141.6062  170.6460 N.ar    1  UNL1       -0.1271
      9 N         140.3144  142.1253  171.6335 N.ar    1  UNL1       -0.1255
     10 C         141.6759  142.0128  171.0141 C.ar    1  UNL1        0.2026
     11 N         141.5146  141.4242  169.6438 N.ar    1  UNL1       -0.2935
     12 C         142.6204  141.1373  168.6718 C.3     1  UNL1        0.0886
     13 C         142.8734  139.7303  168.2176 C.3     1  UNL1        0.0246
     14 C         143.4731  142.2574  168.1538 C.3     1  UNL1        0.0246
     15 C         138.5928  142.2860  163.6961 C.2     1  UNL1        0.2567
     16 O         137.4141  142.7838  164.4790 O.2     1  UNL1       -0.2696
     17 N         139.4574  141.1949  164.2545 N.am    1  UNL1       -0.2656
     18 H         140.2310  140.8682  163.7407 H       1  UNL1        0.1566
     19 C         139.5942  144.1898  162.1092 C.ar    1  UNL1        0.2478
     20 N         139.7008  144.3867  160.6261 N.ar    1  UNL1       -0.1313
     21 N         139.0793  143.1980  159.9547 N.ar    1  UNL1       -0.2443
     22 C         138.9680  142.9792  158.4750 C.3     1  UNL1        0.1539
     23 C         138.5885  142.2663  161.0231 C.ar    1  UNL1        0.1045
     24 C         138.9068  142.8794  162.3546 C.ar    1  UNL1        0.1268
     25 C         141.5593  145.2616  163.4283 C.3     1  UNL1        0.2543
     26 O         140.0883  145.1369  163.1622 O.3     1  UNL1       -0.4551
@<TRIPOS>BOND
     1    25    26    1
     2    26    19    1
     3    19    20   ar
     4    20    21   ar
     5    21    22    1
     6    21    23   ar
     7    23    24   ar
     8    24    15    1
     9    15    16    2
    10    15    17   am
    11    17     1    1
    12     1     2   ar
    13     2     3   ar
    14     3     4   ar
    15     4     5   ar
    16     5     7    1
    17     7     8   ar
    18     8     9   ar
    19     9    10   ar
    20    10    11   ar
    21    11    12    1
    22    12    13    1
    23    12    14    1
    24     5     6   ar
    25    24    19   ar
    26     6     1   ar
    27    11     7   ar
    28    17    18    1
@<TRIPOS>MOLECULE
*****
 26 28 0 0 0
SMALL
GASTEIGER

@<TRIPOS>ATOM
      1 C         138.9753  140.4408  164.0299 C.ar    1  UNL1        0.1345
      2 C         138.7293  139.0509  163.5223 C.ar    1  UNL1        0.0345
      3 C         138.7061  137.8961  164.4794 C.ar    1  UNL1        0.0045
      4 C         138.9289  138.1313  165.9440 C.ar    1  UNL1        0.0224
      5 C         139.1750  139.5211  166.4515 C.ar    1  UNL1        0.1185
      6 N         139.1982  140.6759  165.4945 N.ar    1  UNL1       -0.2274
      7 C         139.3978  139.7563  167.9161 C.ar    1  UNL1        0.1842
      8 N         138.3580  139.6592  168.9929 N.ar    1  UNL1       -0.1271
      9 N         139.0171  139.9727  170.3034 N.ar    1  UNL1       -0.1255
     10 C         140.4643  140.2635  170.0365 C.ar    1  UNL1        0.2026
     11 N         140.6995  140.1298  168.5611 N.ar    1  UNL1       -0.2935
     12 C         142.0070  140.3337  167.8548 C.3     1  UNL1        0.0886
     13 C         142.4733  141.7208  167.5257 C.3     1  UNL1        0.0246
     14 C         142.8482  139.1504  167.4774 C.3     1  UNL1        0.0246
     15 C         140.3074  142.1170  162.5583 C.2     1  UNL1        0.2567
     16 O         141.5932  141.4837  163.0007 O.2     1  UNL1       -0.2696
     17 N         138.9985  141.5956  163.0728 N.am    1  UNL1       -0.2656
     18 H         138.1547  142.0113  162.7824 H       1  UNL1        0.1566
     19 C         139.4610  144.4921  161.6705 C.ar    1  UNL1        0.2478
     20 N         139.8205  145.3835  160.5190 N.ar    1  UNL1       -0.1313
     21 N         140.9124  144.7143  159.7379 N.ar    1  UNL1       -0.2443
     22 C         141.5729  145.2551  158.5046 C.3     1  UNL1        0.1539
     23 C         141.2277  143.4091  160.4068 C.ar    1  UNL1        0.1045
     24 C         140.3306  143.2719  161.6012 C.ar    1  UNL1        0.1268
     25 C         138.8064  144.8991  164.1516 C.3     1  UNL1        0.2543
     26 O         138.4155  144.7716  162.7091 O.3     1  UNL1       -0.4551
@<TRIPOS>BOND
     1    25    26    1
     2    26    19    1
     3    19    20   ar
     4    20    21   ar
     5    21    22    1
     6    21    23   ar
     7    23    24   ar
     8    24    15    1
     9    15    16    2
    10    15    17   am
    11    17     1    1
    12     1     2   ar
    13     2     3   ar
    14     3     4   ar
    15     4     5   ar
    16     5     7    1
    17     7     8   ar
    18     8     9   ar
    19     9    10   ar
    20    10    11   ar
    21    11    12    1
    22    12    13    1
    23    12    14    1
    24     5     6   ar
    25    24    19   ar
    26     6     1   ar
    27    11     7   ar
    28    17    18    1
@<TRIPOS>MOLECULE
*****
 26 28 0 0 0
SMALL
GASTEIGER

@<TRIPOS>ATOM
      1 C         141.5587  140.8949  164.2741 C.ar    1  UNL1        0.1345
      2 C         142.7859  140.0368  164.1878 C.ar    1  UNL1        0.0345
      3 C         143.1859  139.1807  165.3527 C.ar    1  UNL1        0.0045
      4 C         142.3587  139.1828  166.6040 C.ar    1  UNL1        0.0224
      5 C         141.1315  140.0409  166.6903 C.ar    1  UNL1        0.1185
      6 N         140.7315  140.8969  165.5254 N.ar    1  UNL1       -0.2274
      7 C         140.3043  140.0430  167.9416 C.ar    1  UNL1        0.1842
      8 N         138.9068  139.5147  168.0756 N.ar    1  UNL1       -0.1271
      9 N         138.4681  139.7189  169.4954 N.ar    1  UNL1       -0.1255
     10 C         139.5945  140.3734  170.2389 C.ar    1  UNL1        0.2026
     11 N         140.7293  140.5737  169.2787 N.ar    1  UNL1       -0.2935
     12 C         142.0561  141.1955  169.5992 C.3     1  UNL1        0.0886
     13 C         142.3464  142.6044  169.1743 C.3     1  UNL1        0.0246
     14 C         143.0928  140.4083  170.3447 C.3     1  UNL1        0.0246
     15 C         141.4736  143.2175  163.1129 C.2     1  UNL1        0.2567
     16 O         142.1887  143.8280  164.2817 O.2     1  UNL1       -0.2696
     17 N         141.1586  141.7510  163.1091 N.am    1  UNL1       -0.2656
     18 H         140.6893  141.3503  162.3420 H       1  UNL1        0.1566
     19 C         139.8505  144.9382  161.8681 C.ar    1  UNL1        0.2478
     20 N         139.8474  145.6143  160.5291 N.ar    1  UNL1       -0.1313
     21 N         141.0686  145.1675  159.7814 N.ar    1  UNL1       -0.2443
     22 C         141.4628  145.5975  158.3995 C.3     1  UNL1        0.1539
     23 C         141.8265  144.2153  160.6584 C.ar    1  UNL1        0.1045
     24 C         141.0736  144.0736  161.9480 C.ar    1  UNL1        0.1268
     25 C         137.7738  144.0358  163.1420 C.3     1  UNL1        0.2543
     26 O         138.8127  145.0986  162.9392 O.3     1  UNL1       -0.4551
@<TRIPOS>BOND
     1    25    26    1
     2    26    19    1
     3    19    20   ar
     4    20    21   ar
     5    21    22    1
     6    21    23   ar
     7    23    24   ar
     8    24    15    1
     9    15    16    2
    10    15    17   am
    11    17     1    1
    12     1     2   ar
    13     2     3   ar
    14     3     4   ar
    15     4     5   ar
    16     5     7    1
    17     7     8   ar
    18     8     9   ar
    19     9    10   ar
    20    10    11   ar
    21    11    12    1
    22    12    13    1
    23    12    14    1
    24     5     6   ar
    25    24    19   ar
    26     6     1   ar
    27    11     7   ar
    28    17    18    1
@<TRIPOS>MOLECULE
*****
 26 28 0 0 0
SMALL
GASTEIGER

@<TRIPOS>ATOM
      1 C         139.8793  140.5626  164.3885 C.ar    1  UNL1        0.1345
      2 C         139.1142  139.3951  163.8394 C.ar    1  UNL1        0.0345
      3 C         138.5004  138.3946  164.7732 C.ar    1  UNL1        0.0045
      4 C         138.6516  138.5616  166.2562 C.ar    1  UNL1        0.0224
      5 C         139.4167  139.7291  166.8054 C.ar    1  UNL1        0.1185
      6 N         140.0305  140.7296  165.8715 N.ar    1  UNL1       -0.2274
      7 C         139.5679  139.8961  168.2883 C.ar    1  UNL1        0.1842
      8 N         138.4712  139.7801  169.3051 N.ar    1  UNL1       -0.1271
      9 N         139.0679  140.0207  170.6601 N.ar    1  UNL1       -0.1255
     10 C         140.5334  140.2854  170.4808 C.ar    1  UNL1        0.2026
     11 N         140.8424  140.2084  169.0150 N.ar    1  UNL1       -0.2935
     12 C         142.1895  140.4086  168.3863 C.3     1  UNL1        0.0886
     13 C         142.8390  141.7602  168.4189 C.3     1  UNL1        0.0246
     14 C         142.8871  139.2570  167.7249 C.3     1  UNL1        0.0246
     15 C         139.6173  142.3955  162.5659 C.2     1  UNL1        0.2567
     16 O         138.1274  142.2274  162.6110 O.2     1  UNL1       -0.2696
     17 N         140.4932  141.5632  163.4546 N.am    1  UNL1       -0.2656
     18 H         141.4710  141.6736  163.4251 H       1  UNL1        0.1566
     19 C         141.5035  144.1554  161.8657 C.ar    1  UNL1        0.2478
     20 N         141.7392  145.0416  160.6787 N.ar    1  UNL1       -0.1313
     21 N         140.6124  144.8300  159.7113 N.ar    1  UNL1       -0.2443
     22 C         140.4467  145.5151  158.3872 C.3     1  UNL1        0.1539
     23 C         139.6803  143.8130  160.3006 C.ar    1  UNL1        0.1045
     24 C         140.2312  143.3961  161.6320 C.ar    1  UNL1        0.1268
     25 C         143.7402  144.6912  163.0741 C.3     1  UNL1        0.2543
     26 O         142.3854  144.0473  163.0742 O.3     1  UNL1       -0.4551
@<TRIPOS>BOND
     1    25    26    1
     2    26    19    1
     3    19    20   ar
     4    20    21   ar
     5    21    22    1
     6    21    23   ar
     7    23    24   ar
     8    24    15    1
     9    15    16    2
    10    15    17   am
    11    17     1    1
    12     1     2   ar
    13     2     3   ar
    14     3     4   ar
    15     4     5   ar
    16     5     7    1
    17     7     8   ar
    18     8     9   ar
    19     9    10   ar
    20    10    11   ar
    21    11    12    1
    22    12    13    1
    23    12    14    1
    24     5     6   ar
    25    24    19   ar
    26     6     1   ar
    27    11     7   ar
    28    17    18    1
@<TRIPOS>MOLECULE
*****
 26 28 0 0 0
SMALL
GASTEIGER

@<TRIPOS>ATOM
      1 C         140.0207  140.8315  164.7946 C.ar    1  UNL1        0.1345
      2 C         138.6809  140.1624  164.8799 C.ar    1  UNL1        0.0345
      3 C         138.2620  139.4819  166.1493 C.ar    1  UNL1        0.0045
      4 C         139.1828  139.4706  167.3334 C.ar    1  UNL1        0.0224
      5 C         140.5225  140.1397  167.2481 C.ar    1  UNL1        0.1185
      6 N         140.9415  140.8202  165.9787 N.ar    1  UNL1       -0.2274
      7 C         141.4433  140.1284  168.4322 C.ar    1  UNL1        0.1842
      8 N         142.6360  139.2370  168.6131 N.ar    1  UNL1       -0.1271
      9 N         143.2629  139.5641  169.9360 N.ar    1  UNL1       -0.1255
     10 C         142.4576  140.6577  170.5727 C.ar    1  UNL1        0.2026
     11 N         141.3330  141.0065  169.6433 N.ar    1  UNL1       -0.2935
     12 C         140.2826  142.0501  169.8830 C.3     1  UNL1        0.0886
     13 C         140.5524  143.4817  169.5262 C.3     1  UNL1        0.0246
     14 C         138.9621  141.6620  170.4796 C.3     1  UNL1        0.0246
     15 C         140.3837  143.0075  163.4222 C.2     1  UNL1        0.2567
     16 O         139.9088  143.8224  164.5885 O.2     1  UNL1       -0.2696
     17 N         140.4397  141.5121  163.5252 N.am    1  UNL1       -0.2656
     18 H         140.7514  140.9772  162.7597 H       1  UNL1        0.1566
     19 C         142.1851  144.1693  161.8252 C.ar    1  UNL1        0.2478
     20 N         142.1497  144.7855  160.4581 N.ar    1  UNL1       -0.1313
     21 N         140.7453  144.6849  159.9406 N.ar    1  UNL1       -0.2443
     22 C         140.2588  145.1764  158.6095 C.3     1  UNL1        0.1539
     23 C         139.9128  144.0066  160.9880 C.ar    1  UNL1        0.1045
     24 C         140.8028  143.6880  162.1527 C.ar    1  UNL1        0.1268
     25 C         143.5883  145.0227  163.8384 C.3     1  UNL1        0.2543
     26 O         143.3912  144.0546  162.7096 O.3     1  UNL1       -0.4551
@<TRIPOS>BOND
     1    25    26    1
     2    26    19    1
     3    19    20   ar
     4    20    21   ar
     5    21    22    1
     6    21    23   ar
     7    23    24   ar
     8    24    15    1
     9    15    16    2
    10    15    17   am
    11    17     1    1
    12     1     2   ar
    13     2     3   ar
    14     3     4   ar
    15     4     5   ar
    16     5     7    1
    17     7     8   ar
    18     8     9   ar
    19     9    10   ar
    20    10    11   ar
    21    11    12    1
    22    12    13    1
    23    12    14    1
    24     5     6   ar
    25    24    19   ar
    26     6     1   ar
    27    11     7   ar
    28    17    18    1
@<TRIPOS>MOLECULE
*****
 26 28 0 0 0
SMALL
GASTEIGER

@<TRIPOS>ATOM
      1 C         143.5335  143.3602  161.7219 C.ar    1  UNL1        0.1345
      2 C         144.3695  144.2225  162.6205 C.ar    1  UNL1        0.0345
      3 C         143.7155  145.0484  163.6882 C.ar    1  UNL1        0.0045
      4 C         142.2255  145.0120  163.8573 C.ar    1  UNL1        0.0224
      5 C         141.3895  144.1497  162.9587 C.ar    1  UNL1        0.1185
      6 N         142.0436  143.3238  161.8910 N.ar    1  UNL1       -0.2274
      7 C         139.8995  144.1133  163.1279 C.ar    1  UNL1        0.1842
      8 N         138.8998  144.8685  162.3031 N.ar    1  UNL1       -0.1271
      9 N         137.5301  144.5372  162.8169 N.ar    1  UNL1       -0.1255
     10 C         137.6832  143.5773  163.9593 C.ar    1  UNL1        0.2026
     11 N         139.1476  143.3153  164.1515 N.ar    1  UNL1       -0.2935
     12 C         139.7537  142.4136  165.1857 C.3     1  UNL1        0.0886
     13 C         140.2886  142.9903  166.4628 C.3     1  UNL1        0.0246
     14 C         139.8247  140.9350  164.9428 C.3     1  UNL1        0.0246
     15 C         143.9352  142.8419  159.2079 C.2     1  UNL1        0.2567
     16 O         143.0289  143.9756  158.8294 O.2     1  UNL1       -0.2696
     17 N         144.1876  142.5342  160.6541 N.am    1  UNL1       -0.2656
     18 H         144.7824  141.7901  160.9025 H       1  UNL1        0.1566
     19 C         144.2352  140.6044  157.7766 C.ar    1  UNL1        0.2478
     20 N         145.1392  140.1726  156.6602 N.ar    1  UNL1       -0.1313
     21 N         146.0521  141.3173  156.3338 N.ar    1  UNL1       -0.2443
     22 C         147.1177  141.3219  155.2782 C.3     1  UNL1        0.1539
     23 C         145.7121  142.4566  157.2485 C.ar    1  UNL1        0.1045
     24 C         144.5892  142.0159  158.1401 C.ar    1  UNL1        0.1268
     25 C         143.4116  139.1284  159.7497 C.3     1  UNL1        0.2543
     26 O         143.1650  139.7710  158.4169 O.3     1  UNL1       -0.4551
@<TRIPOS>BOND
     1    25    26    1
     2    26    19    1
     3    19    20   ar
     4    20    21   ar
     5    21    22    1
     6    21    23   ar
     7    23    24   ar
     8    24    15    1
     9    15    16    2
    10    15    17   am
    11    17     1    1
    12     1     2   ar
    13     2     3   ar
    14     3     4   ar
    15     4     5   ar
    16     5     7    1
    17     7     8   ar
    18     8     9   ar
    19     9    10   ar
    20    10    11   ar
    21    11    12    1
    22    12    13    1
    23    12    14    1
    24     5     6   ar
    25    24    19   ar
    26     6     1   ar
    27    11     7   ar
    28    17    18    1
@<TRIPOS>MOLECULE
*****
 26 28 0 0 0
SMALL
GASTEIGER

@<TRIPOS>ATOM
      1 C         138.5723  142.7602  162.6959 C.ar    1  UNL1        0.1345
      2 C         137.5847  143.6883  163.3387 C.ar    1  UNL1        0.0345
      3 C         137.9289  144.3739  164.6276 C.ar    1  UNL1        0.0045
      4 C         139.2607  144.1314  165.2738 C.ar    1  UNL1        0.0224
      5 C         140.2483  143.2033  164.6310 C.ar    1  UNL1        0.1185
      6 N         139.9041  142.5177  163.3420 N.ar    1  UNL1       -0.2274
      7 C         141.5801  142.9608  165.2772 C.ar    1  UNL1        0.1842
      8 N         142.9212  143.2100  164.6533 N.ar    1  UNL1       -0.1271
      9 N         143.9746  142.8297  165.6512 N.ar    1  UNL1       -0.1255
     10 C         143.2845  142.3455  166.8918 C.ar    1  UNL1        0.2026
     11 N         141.8046  142.4265  166.6607 N.ar    1  UNL1       -0.2935
     12 C         140.7367  142.0409  167.6410 C.3     1  UNL1        0.0886
     13 C         139.9375  140.7900  167.4259 C.3     1  UNL1        0.0246
     14 C         140.4681  142.9063  168.8364 C.3     1  UNL1        0.0246
     15 C         138.6319  142.6891  160.0994 C.2     1  UNL1        0.2567
     16 O         139.3799  143.9891  160.0810 O.2     1  UNL1       -0.2696
     17 N         138.2282  142.0746  161.4069 N.am    1  UNL1       -0.2656
     18 H         137.7373  141.2213  161.4190 H       1  UNL1        0.1566
     19 C         137.9852  140.5440  158.6414 C.ar    1  UNL1        0.2478
     20 N         137.6962  140.2955  157.1907 N.ar    1  UNL1       -0.1313
     21 N         137.8202  141.6013  156.4630 N.ar    1  UNL1       -0.2443
     22 C         137.6146  141.8142  154.9925 C.3     1  UNL1        0.1539
     23 C         138.1858  142.6569  157.4641 C.ar    1  UNL1        0.1045
     24 C         138.2878  142.0034  158.8104 C.ar    1  UNL1        0.1268
     25 C         139.2398  138.8005  160.1030 C.3     1  UNL1        0.2543
     26 O         137.9736  139.5140  159.7318 O.3     1  UNL1       -0.4551
@<TRIPOS>BOND
     1    25    26    1
     2    26    19    1
     3    19    20   ar
     4    20    21   ar
     5    21    22    1
     6    21    23   ar
     7    23    24   ar
     8    24    15    1
     9    15    16    2
    10    15    17   am
    11    17     1    1
    12     1     2   ar
    13     2     3   ar
    14     3     4   ar
    15     4     5   ar
    16     5     7    1
    17     7     8   ar
    18     8     9   ar
    19     9    10   ar
    20    10    11   ar
    21    11    12    1
    22    12    13    1
    23    12    14    1
    24     5     6   ar
    25    24    19   ar
    26     6     1   ar
    27    11     7   ar
    28    17    18    1
@<TRIPOS>MOLECULE
*****
 26 28 0 0 0
SMALL
GASTEIGER

@<TRIPOS>ATOM
      1 C         139.7732  140.2962  163.3962 C.ar    1  UNL1        0.1345
      2 C         138.6118  139.4951  162.8869 C.ar    1  UNL1        0.0345
      3 C         137.7569  140.0346  161.7788 C.ar    1  UNL1        0.0045
      4 C         138.0635  141.3753  161.1799 C.ar    1  UNL1        0.0224
      5 C         139.2249  142.1764  161.6891 C.ar    1  UNL1        0.1185
      6 N         140.0797  141.6368  162.7972 N.ar    1  UNL1       -0.2274
      7 C         139.5314  143.5170  161.0901 C.ar    1  UNL1        0.1842
      8 N         139.4561  143.8703  159.6343 N.ar    1  UNL1       -0.1271
      9 N         139.8452  145.3114  159.4863 N.ar    1  UNL1       -0.1255
     10 C         140.1611  145.8487  160.8507 C.ar    1  UNL1        0.2026
     11 N         139.9671  144.7397  161.8419 N.ar    1  UNL1       -0.2935
     12 C         140.1728  144.8365  163.3246 C.3     1  UNL1        0.0886
     13 C         141.5588  144.9684  163.8825 C.3     1  UNL1        0.0246
     14 C         138.9922  144.8014  164.2494 C.3     1  UNL1        0.0246
     15 C         140.7136  140.4894  165.8104 C.2     1  UNL1        0.2567
     16 O         139.9442  141.7618  166.0082 O.2     1  UNL1       -0.2696
     17 N         140.6282  139.7567  164.5044 N.am    1  UNL1       -0.2656
     18 H         141.1332  138.9216  164.3745 H       1  UNL1        0.1566
     19 C         142.7148  138.9949  166.7628 C.ar    1  UNL1        0.2478
     20 N         143.2820  138.7255  168.1251 N.ar    1  UNL1       -0.1313
     21 N         142.4863  139.5139  169.1228 N.ar    1  UNL1       -0.2443
     22 C         142.7102  139.5409  170.6057 C.3     1  UNL1        0.1539
     23 C         141.4273  140.2707  168.3770 C.ar    1  UNL1        0.1045
     24 C         141.5686  139.9499  166.9186 C.ar    1  UNL1        0.1268
     25 C         144.2044  139.1641  164.6410 C.3     1  UNL1        0.2543
     26 O         143.2073  138.4118  165.4716 O.3     1  UNL1       -0.4551
@<TRIPOS>BOND
     1    25    26    1
     2    26    19    1
     3    19    20   ar
     4    20    21   ar
     5    21    22    1
     6    21    23   ar
     7    23    24   ar
     8    24    15    1
     9    15    16    2
    10    15    17   am
    11    17     1    1
    12     1     2   ar
    13     2     3   ar
    14     3     4   ar
    15     4     5   ar
    16     5     7    1
    17     7     8   ar
    18     8     9   ar
    19     9    10   ar
    20    10    11   ar
    21    11    12    1
    22    12    13    1
    23    12    14    1
    24     5     6   ar
    25    24    19   ar
    26     6     1   ar
    27    11     7   ar
    28    17    18    1
