@<TRIPOS>MOLECULE
*****
 32 35 0 0 0
SMALL
GASTEIGER

@<TRIPOS>ATOM
      1 N         141.4762  145.3808  160.2220 N.am    1  UNL1       -0.2677
      2 C         140.6943  145.2947  161.4991 C.2     1  UNL1        0.2316
      3 O         139.2312  144.9663  161.4620 O.2     1  UNL1       -0.2744
      4 H         142.4365  145.5963  160.2463 H       1  UNL1        0.1563
      5 N         139.7507  145.5029  156.7473 N.ar    1  UNL1       -0.2421
      6 C         139.7430  144.0285  157.0231 C.ar    1  UNL1        0.0985
      7 C         140.3885  143.8032  158.3584 C.ar    1  UNL1        0.0564
      8 C         140.7951  145.1385  158.9078 C.ar    1  UNL1        0.1555
      9 N         140.4010  146.1889  157.9121 N.ar    1  UNL1       -0.1536
     10 C         139.2042  146.1735  155.5220 C.3     1  UNL1        0.1728
     11 C         138.9486  150.6625  155.3385 C.ar    1  UNL1        0.0875
     12 C         139.5924  149.9015  154.2176 C.ar    1  UNL1        0.0131
     13 C         139.6776  148.4052  154.2788 C.ar    1  UNL1        0.0174
     14 C         139.1190  147.6699  155.4608 C.ar    1  UNL1        0.0837
     15 N         138.4753  148.4309  156.5817 N.ar    1  UNL1       -0.2454
     16 C         138.3901  149.9272  156.5206 C.ar    1  UNL1        0.1087
     17 N         138.7782  153.6552  155.2162 N.1     1  UNL1       -0.1908
     18 C         138.8634  152.1588  155.2774 C.1     1  UNL1        0.1020
     19 C         141.3754  145.5370  162.8134 C.3     1  UNL1        0.1117
     20 C         141.1405  144.6029  163.9633 C.ar    1  UNL1       -0.0131
     21 C         142.2368  143.6878  164.4223 C.ar    1  UNL1       -0.0041
     22 C         142.0018  142.7538  165.5724 C.ar    1  UNL1       -0.0043
     23 C         140.6706  142.7349  166.2632 C.ar    1  UNL1       -0.0149
     24 C         139.5743  143.6500  165.8042 C.ar    1  UNL1       -0.0043
     25 C         139.8092  144.5840  164.6543 C.ar    1  UNL1       -0.0041
     26 C         140.4356  141.8008  167.4132 C.3     1  UNL1        0.1063
     27 C         139.9444  140.6134  168.1870 C.3     1  UNL1        0.0129
     28 C         139.6160  140.7469  166.7295 C.3     1  UNL1        0.0129
     29 C         141.1736  142.5303  168.4964 C.3     1  UNL1        0.4006
     30 F         141.9117  143.2597  169.5795 F       1  UNL1       -0.1697
     31 F         140.0786  143.5539  168.5530 F       1  UNL1       -0.1697
     32 F         142.2686  141.5066  168.4397 F       1  UNL1       -0.1697
@<TRIPOS>BOND
     1    17    18    3
     2    18    11    1
     3    11    12   ar
     4    12    13   ar
     5    13    14   ar
     6    14    10    1
     7    10     5    1
     8     5     6   ar
     9     6     7   ar
    10     7     8   ar
    11     8     1    1
    12     1     2   am
    13     2     3    2
    14     2    19    1
    15    19    20    1
    16    20    21   ar
    17    21    22   ar
    18    22    23   ar
    19    23    26    1
    20    26    29    1
    21    29    30    1
    22    29    31    1
    23    29    32    1
    24    26    27    1
    25    27    28    1
    26    23    24   ar
    27    24    25   ar
    28     8     9   ar
    29    14    15   ar
    30    15    16   ar
    31    16    11   ar
    32     9     5   ar
    33    25    20   ar
    34    28    26    1
    35     1     4    1
@<TRIPOS>MOLECULE
*****
 32 35 0 0 0
SMALL
GASTEIGER

@<TRIPOS>ATOM
      1 N         142.5429  137.6147  161.9247 N.am    1  UNL1       -0.2677
      2 C         141.2284  137.4270  162.6223 C.2     1  UNL1        0.2316
      3 O         139.9456  137.6017  161.8647 O.2     1  UNL1       -0.2744
      4 H         143.3849  137.5001  162.4220 H       1  UNL1        0.1563
      5 N         142.8026  137.8273  158.0578 N.ar    1  UNL1       -0.2421
      6 C         142.4449  139.2427  158.4026 C.ar    1  UNL1        0.0985
      7 C         142.3041  139.3354  159.8931 C.ar    1  UNL1        0.0564
      8 C         142.5748  137.9772  160.4696 C.ar    1  UNL1        0.1555
      9 N         142.8828  137.0452  159.3354 N.ar    1  UNL1       -0.1536
     10 C         143.0386  137.2887  156.6780 C.3     1  UNL1        0.1728
     11 C         142.1456  132.9739  155.7638 C.ar    1  UNL1        0.0875
     12 C         143.3570  133.3343  156.5715 C.ar    1  UNL1        0.0131
     13 C         143.6547  134.7725  156.8763 C.ar    1  UNL1        0.0174
     14 C         142.7409  135.8504  156.3732 C.ar    1  UNL1        0.0837
     15 N         141.5294  135.4901  155.5655 N.ar    1  UNL1       -0.2454
     16 C         141.2318  134.0518  155.2608 C.ar    1  UNL1        0.1087
     17 N         141.5502  130.0974  155.1544 N.1     1  UNL1       -0.1908
     18 C         141.8479  131.5357  155.4591 C.1     1  UNL1        0.1020
     19 C         141.1966  137.0645  164.0775 C.3     1  UNL1        0.1117
     20 C         141.0342  138.1365  165.1141 C.ar    1  UNL1       -0.0131
     21 C         142.2387  138.6885  165.8171 C.ar    1  UNL1       -0.0041
     22 C         142.0762  139.7605  166.8538 C.ar    1  UNL1       -0.0043
     23 C         140.7094  140.2804  167.1872 C.ar    1  UNL1       -0.0149
     24 C         139.5048  139.7284  166.4841 C.ar    1  UNL1       -0.0043
     25 C         139.6672  138.6564  165.4475 C.ar    1  UNL1       -0.0041
     26 C         140.5470  141.3524  168.2238 C.3     1  UNL1        0.1063
     27 C         140.4350  142.7184  168.8333 C.3     1  UNL1        0.0129
     28 C         140.6356  142.5713  167.3540 C.3     1  UNL1        0.0129
     29 C         140.4020  140.5059  169.4536 C.3     1  UNL1        0.4006
     30 F         140.2571  139.6594  170.6833 F       1  UNL1       -0.1697
     31 F         138.9141  140.4861  169.2644 F       1  UNL1       -0.1697
     32 F         141.8899  140.5257  169.6426 F       1  UNL1       -0.1697
@<TRIPOS>BOND
     1    17    18    3
     2    18    11    1
     3    11    12   ar
     4    12    13   ar
     5    13    14   ar
     6    14    10    1
     7    10     5    1
     8     5     6   ar
     9     6     7   ar
    10     7     8   ar
    11     8     1    1
    12     1     2   am
    13     2     3    2
    14     2    19    1
    15    19    20    1
    16    20    21   ar
    17    21    22   ar
    18    22    23   ar
    19    23    26    1
    20    26    29    1
    21    29    30    1
    22    29    31    1
    23    29    32    1
    24    26    27    1
    25    27    28    1
    26    23    24   ar
    27    24    25   ar
    28     8     9   ar
    29    14    15   ar
    30    15    16   ar
    31    16    11   ar
    32     9     5   ar
    33    25    20   ar
    34    28    26    1
    35     1     4    1
@<TRIPOS>MOLECULE
*****
 32 35 0 0 0
SMALL
GASTEIGER

@<TRIPOS>ATOM
      1 N         139.5930  144.2156  160.9515 N.am    1  UNL1       -0.2677
      2 C         139.4552  145.2324  162.0456 C.2     1  UNL1        0.2316
      3 O         139.9094  146.6439  161.8193 O.2     1  UNL1       -0.2744
      4 H         139.2948  143.2892  161.1000 H       1  UNL1        0.1563
      5 N         140.4091  145.3553  157.3320 N.ar    1  UNL1       -0.2421
      6 C         141.7835  145.0799  157.8660 C.ar    1  UNL1        0.0985
      7 C         141.6451  144.6194  159.2869 C.ar    1  UNL1        0.0564
      8 C         140.1851  144.6102  159.6311 C.ar    1  UNL1        0.1555
      9 N         139.4212  145.0650  158.4229 N.ar    1  UNL1       -0.1536
     10 C         140.0802  145.8364  155.9499 C.3     1  UNL1        0.1728
     11 C         138.9452  150.1384  155.2757 C.ar    1  UNL1        0.0875
     12 C         139.7492  149.4043  154.2439 C.ar    1  UNL1        0.0131
     13 C         140.1275  147.9703  154.4686 C.ar    1  UNL1        0.0174
     14 C         139.7019  147.2704  155.7252 C.ar    1  UNL1        0.0837
     15 N         138.8980  148.0046  156.7570 N.ar    1  UNL1       -0.2454
     16 C         138.5196  149.4386  156.5322 C.ar    1  UNL1        0.1087
     17 N         138.1886  153.0064  154.8262 N.1     1  UNL1       -0.1908
     18 C         138.5669  151.5724  155.0509 C.1     1  UNL1        0.1020
     19 C         138.8630  144.8377  163.3660 C.3     1  UNL1        0.1117
     20 C         138.9212  143.4083  163.8169 C.ar    1  UNL1       -0.0131
     21 C         140.2193  142.8229  164.2884 C.ar    1  UNL1       -0.0041
     22 C         140.2775  141.3933  164.7392 C.ar    1  UNL1       -0.0043
     23 C         139.0377  140.5494  164.7185 C.ar    1  UNL1       -0.0149
     24 C         137.7396  141.1348  164.2470 C.ar    1  UNL1       -0.0043
     25 C         137.6814  142.5642  163.7961 C.ar    1  UNL1       -0.0041
     26 C         139.0959  139.1198  165.1693 C.3     1  UNL1        0.1063
     27 C         139.2234  137.6265  165.1078 C.3     1  UNL1        0.0129
     28 C         139.3154  138.4396  163.8505 C.3     1  UNL1        0.0129
     29 C         138.8967  139.3036  166.6446 C.3     1  UNL1        0.4006
     30 F         138.6973  139.4873  168.1199 F       1  UNL1       -0.1697
     31 F         140.3713  139.5172  166.8172 F       1  UNL1       -0.1697
     32 F         137.4220  139.0900  166.4720 F       1  UNL1       -0.1697
@<TRIPOS>BOND
     1    17    18    3
     2    18    11    1
     3    11    12   ar
     4    12    13   ar
     5    13    14   ar
     6    14    10    1
     7    10     5    1
     8     5     6   ar
     9     6     7   ar
    10     7     8   ar
    11     8     1    1
    12     1     2   am
    13     2     3    2
    14     2    19    1
    15    19    20    1
    16    20    21   ar
    17    21    22   ar
    18    22    23   ar
    19    23    26    1
    20    26    29    1
    21    29    30    1
    22    29    31    1
    23    29    32    1
    24    26    27    1
    25    27    28    1
    26    23    24   ar
    27    24    25   ar
    28     8     9   ar
    29    14    15   ar
    30    15    16   ar
    31    16    11   ar
    32     9     5   ar
    33    25    20   ar
    34    28    26    1
    35     1     4    1
@<TRIPOS>MOLECULE
*****
 32 35 0 0 0
SMALL
GASTEIGER

@<TRIPOS>ATOM
      1 N         141.7249  145.3557  160.1823 N.am    1  UNL1       -0.2677
      2 C         140.7662  145.0467  161.2938 C.2     1  UNL1        0.2316
      3 O         139.3454  144.6830  160.9794 O.2     1  UNL1       -0.2744
      4 H         142.6575  145.5944  160.3887 H       1  UNL1        0.1563
      5 N         140.0837  145.7882  156.6917 N.ar    1  UNL1       -0.2421
      6 C         141.0196  144.6451  156.4322 C.ar    1  UNL1        0.0985
      7 C         141.7484  144.3439  157.7083 C.ar    1  UNL1        0.0564
      8 C         141.2628  145.3009  158.7564 C.ar    1  UNL1        0.1555
      9 N         140.2340  146.1935  158.1281 N.ar    1  UNL1       -0.1536
     10 C         139.1597  146.4159  155.6905 C.3     1  UNL1        0.1728
     11 C         138.8574  150.8968  155.4074 C.ar    1  UNL1        0.0875
     12 C         138.3616  150.1875  156.6326 C.ar    1  UNL1        0.0131
     13 C         138.4623  148.6939  156.7270 C.ar    1  UNL1        0.0174
     14 C         139.0589  147.9095  155.5962 C.ar    1  UNL1        0.0837
     15 N         139.5548  148.6187  154.3710 N.ar    1  UNL1       -0.2454
     16 C         139.4541  150.1124  154.2767 C.ar    1  UNL1        0.1087
     17 N         138.6560  153.8840  155.2187 N.1     1  UNL1       -0.1908
     18 C         138.7567  152.3904  155.3131 C.1     1  UNL1        0.1020
     19 C         141.2284  145.1015  162.7198 C.3     1  UNL1        0.1117
     20 C         140.8485  144.0081  163.6738 C.ar    1  UNL1       -0.0131
     21 C         139.9452  144.3053  164.8339 C.ar    1  UNL1       -0.0041
     22 C         139.5653  143.2118  165.7880 C.ar    1  UNL1       -0.0043
     23 C         140.0886  141.8214  165.5819 C.ar    1  UNL1       -0.0149
     24 C         140.9919  141.5242  164.4218 C.ar    1  UNL1       -0.0043
     25 C         141.3718  142.6175  163.4678 C.ar    1  UNL1       -0.0041
     26 C         139.7087  140.7280  166.5360 C.3     1  UNL1        0.1063
     27 C         139.5445  139.9734  167.8219 C.3     1  UNL1        0.0129
     28 C         140.1980  141.3236  167.8229 C.3     1  UNL1        0.0129
     29 C         139.0874  139.7528  165.5806 C.3     1  UNL1        0.4006
     30 F         138.4662  138.7774  164.6252 F       1  UNL1       -0.1697
     31 F         137.9479  140.7014  165.3533 F       1  UNL1       -0.1697
     32 F         140.2269  138.8041  165.8080 F       1  UNL1       -0.1697
@<TRIPOS>BOND
     1    17    18    3
     2    18    11    1
     3    11    12   ar
     4    12    13   ar
     5    13    14   ar
     6    14    10    1
     7    10     5    1
     8     5     6   ar
     9     6     7   ar
    10     7     8   ar
    11     8     1    1
    12     1     2   am
    13     2     3    2
    14     2    19    1
    15    19    20    1
    16    20    21   ar
    17    21    22   ar
    18    22    23   ar
    19    23    26    1
    20    26    29    1
    21    29    30    1
    22    29    31    1
    23    29    32    1
    24    26    27    1
    25    27    28    1
    26    23    24   ar
    27    24    25   ar
    28     8     9   ar
    29    14    15   ar
    30    15    16   ar
    31    16    11   ar
    32     9     5   ar
    33    25    20   ar
    34    28    26    1
    35     1     4    1
@<TRIPOS>MOLECULE
*****
 32 35 0 0 0
SMALL
GASTEIGER

@<TRIPOS>ATOM
      1 N         143.6571  139.4954  161.2523 N.am    1  UNL1       -0.2677
      2 C         143.5038  138.8458  162.5955 C.2     1  UNL1        0.2316
      3 O         142.5084  137.7398  162.7846 O.2     1  UNL1       -0.2744
      4 H         144.3104  140.2213  161.1282 H       1  UNL1        0.1563
      5 N         142.1344  138.0953  157.9680 N.ar    1  UNL1       -0.2421
      6 C         140.9031  138.5784  158.6754 C.ar    1  UNL1        0.0985
      7 C         141.3236  139.1617  159.9919 C.ar    1  UNL1        0.0564
      8 C         142.8149  139.0391  160.0980 C.ar    1  UNL1        0.1555
      9 N         143.3160  138.3800  158.8472 N.ar    1  UNL1       -0.1536
     10 C         142.1768  137.4421  156.6184 C.3     1  UNL1        0.1728
     11 C         142.5027  132.9656  156.2943 C.ar    1  UNL1        0.0875
     12 C         141.5634  133.7161  155.3974 C.ar    1  UNL1        0.0131
     13 C         141.4548  135.2083  155.5054 C.ar    1  UNL1        0.0174
     14 C         142.2854  135.9500  156.5103 C.ar    1  UNL1        0.0837
     15 N         143.2247  135.1995  157.4073 N.ar    1  UNL1       -0.2454
     16 C         143.3333  133.7073  157.2992 C.ar    1  UNL1        0.1087
     17 N         142.7199  129.9813  156.0783 N.1     1  UNL1       -0.1908
     18 C         142.6113  131.4735  156.1863 C.1     1  UNL1        0.1020
     19 C         144.3461  139.3021  163.7498 C.3     1  UNL1        0.1117
     20 C         143.6938  139.7349  165.0293 C.ar    1  UNL1       -0.0131
     21 C         143.3141  141.1723  165.2288 C.ar    1  UNL1       -0.0041
     22 C         142.6617  141.6050  166.5084 C.ar    1  UNL1       -0.0043
     23 C         142.3892  140.6005  167.5883 C.ar    1  UNL1       -0.0149
     24 C         142.7688  139.1631  167.3889 C.ar    1  UNL1       -0.0043
     25 C         143.4212  138.7303  166.1094 C.ar    1  UNL1       -0.0041
     26 C         141.7368  141.0333  168.8679 C.3     1  UNL1        0.1063
     27 C         140.7044  141.1712  169.9474 C.3     1  UNL1        0.0129
     28 C         140.4161  140.3344  168.7363 C.3     1  UNL1        0.0129
     29 C         142.8309  141.8825  169.4439 C.3     1  UNL1        0.4006
     30 F         143.9249  142.7318  170.0198 F       1  UNL1       -0.1697
     31 F         143.5975  140.6464  169.8102 F       1  UNL1       -0.1697
     32 F         142.0642  143.1187  169.0775 F       1  UNL1       -0.1697
@<TRIPOS>BOND
     1    17    18    3
     2    18    11    1
     3    11    12   ar
     4    12    13   ar
     5    13    14   ar
     6    14    10    1
     7    10     5    1
     8     5     6   ar
     9     6     7   ar
    10     7     8   ar
    11     8     1    1
    12     1     2   am
    13     2     3    2
    14     2    19    1
    15    19    20    1
    16    20    21   ar
    17    21    22   ar
    18    22    23   ar
    19    23    26    1
    20    26    29    1
    21    29    30    1
    22    29    31    1
    23    29    32    1
    24    26    27    1
    25    27    28    1
    26    23    24   ar
    27    24    25   ar
    28     8     9   ar
    29    14    15   ar
    30    15    16   ar
    31    16    11   ar
    32     9     5   ar
    33    25    20   ar
    34    28    26    1
    35     1     4    1
@<TRIPOS>MOLECULE
*****
 32 35 0 0 0
SMALL
GASTEIGER

@<TRIPOS>ATOM
      1 N         141.8602  145.1756  160.5257 N.am    1  UNL1       -0.2677
      2 C         140.8602  145.0203  161.6329 C.2     1  UNL1        0.2316
      3 O         139.4050  144.8514  161.3110 O.2     1  UNL1       -0.2744
      4 H         142.8153  145.2865  160.7370 H       1  UNL1        0.1563
      5 N         140.1776  145.6493  157.0602 N.ar    1  UNL1       -0.2421
      6 C         141.2311  144.6324  156.7343 C.ar    1  UNL1        0.0985
      7 C         141.9896  144.3312  157.9929 C.ar    1  UNL1        0.0564
      8 C         141.4049  145.1619  159.0966 C.ar    1  UNL1        0.1555
      9 N         140.2851  145.9765  158.5202 N.ar    1  UNL1       -0.1536
     10 C         139.1901  146.2360  156.0955 C.3     1  UNL1        0.1728
     11 C         138.8832  150.7009  155.6264 C.ar    1  UNL1        0.0875
     12 C         139.4651  149.8690  154.5222 C.ar    1  UNL1        0.0131
     13 C         139.5674  148.3807  154.6786 C.ar    1  UNL1        0.0174
     14 C         139.0878  147.7243  155.9391 C.ar    1  UNL1        0.0837
     15 N         138.5058  148.5562  157.0433 N.ar    1  UNL1       -0.2454
     16 C         138.4035  150.0445  156.8869 C.ar    1  UNL1        0.1087
     17 N         138.6786  153.6775  155.3136 N.1     1  UNL1       -0.1908
     18 C         138.7809  152.1892  155.4700 C.1     1  UNL1        0.1020
     19 C         141.3155  145.0340  163.0621 C.3     1  UNL1        0.1117
     20 C         141.7308  143.7564  163.7292 C.ar    1  UNL1       -0.0131
     21 C         140.8090  142.5731  163.7231 C.ar    1  UNL1       -0.0041
     22 C         141.2244  141.2953  164.3903 C.ar    1  UNL1       -0.0043
     23 C         142.5615  141.2010  165.0634 C.ar    1  UNL1       -0.0149
     24 C         143.4833  142.3843  165.0695 C.ar    1  UNL1       -0.0043
     25 C         143.0679  143.6620  164.4024 C.ar    1  UNL1       -0.0041
     26 C         142.9768  139.9233  165.7305 C.3     1  UNL1        0.1063
     27 C         143.7163  138.6442  165.9898 C.3     1  UNL1        0.0129
     28 C         144.0545  139.4757  164.7879 C.3     1  UNL1        0.0129
     29 C         142.0434  139.9270  166.9047 C.3     1  UNL1        0.4006
     30 F         141.1101  139.9309  168.0789 F       1  UNL1       -0.1697
     31 F         141.1707  138.9214  166.2141 F       1  UNL1       -0.1697
     32 F         142.9163  140.9327  167.5952 F       1  UNL1       -0.1697
@<TRIPOS>BOND
     1    17    18    3
     2    18    11    1
     3    11    12   ar
     4    12    13   ar
     5    13    14   ar
     6    14    10    1
     7    10     5    1
     8     5     6   ar
     9     6     7   ar
    10     7     8   ar
    11     8     1    1
    12     1     2   am
    13     2     3    2
    14     2    19    1
    15    19    20    1
    16    20    21   ar
    17    21    22   ar
    18    22    23   ar
    19    23    26    1
    20    26    29    1
    21    29    30    1
    22    29    31    1
    23    29    32    1
    24    26    27    1
    25    27    28    1
    26    23    24   ar
    27    24    25   ar
    28     8     9   ar
    29    14    15   ar
    30    15    16   ar
    31    16    11   ar
    32     9     5   ar
    33    25    20   ar
    34    28    26    1
    35     1     4    1
@<TRIPOS>MOLECULE
*****
 32 35 0 0 0
SMALL
GASTEIGER

@<TRIPOS>ATOM
      1 N         139.1133  138.6596  161.2000 N.am    1  UNL1       -0.2677
      2 C         139.7055  137.8729  162.3316 C.2     1  UNL1        0.2316
      3 O         141.0443  137.2165  162.1689 O.2     1  UNL1       -0.2744
      4 H         138.2346  139.0904  161.3068 H       1  UNL1        0.1563
      5 N         140.6628  138.3785  157.6524 N.ar    1  UNL1       -0.2421
      6 C         141.3555  139.6020  158.1751 C.ar    1  UNL1        0.0985
      7 C         140.8594  139.8562  159.5678 C.ar    1  UNL1        0.0564
      8 C         139.8600  138.7898  159.9057 C.ar    1  UNL1        0.1555
      9 N         139.7385  137.8766  158.7220 N.ar    1  UNL1       -0.1536
     10 C         140.8597  137.7647  156.2980 C.3     1  UNL1        0.1728
     11 C         143.0765  133.8696  155.8935 C.ar    1  UNL1        0.0875
     12 C         141.8912  134.1523  155.0189 C.ar    1  UNL1        0.0131
     13 C         141.1523  135.4507  155.1537 C.ar    1  UNL1        0.0174
     14 C         141.5986  136.4664  156.1632 C.ar    1  UNL1        0.0837
     15 N         142.7839  136.1837  157.0378 N.ar    1  UNL1       -0.2454
     16 C         143.5229  134.8853  156.9030 C.ar    1  UNL1        0.1087
     17 N         144.5544  131.2728  155.6239 N.1     1  UNL1       -0.1908
     18 C         143.8154  132.5712  155.7587 C.1     1  UNL1        0.1020
     19 C         138.9588  137.7427  163.6260 C.3     1  UNL1        0.1117
     20 C         139.2897  138.6459  164.7769 C.ar    1  UNL1       -0.0131
     21 C         140.5044  139.5238  164.7161 C.ar    1  UNL1       -0.0041
     22 C         140.8353  140.4270  165.8672 C.ar    1  UNL1       -0.0043
     23 C         139.9516  140.4522  167.0788 C.ar    1  UNL1       -0.0149
     24 C         138.7368  139.5743  167.1396 C.ar    1  UNL1       -0.0043
     25 C         138.4059  138.6711  165.9887 C.ar    1  UNL1       -0.0041
     26 C         140.2825  141.3555  168.2298 C.3     1  UNL1        0.1063
     27 C         140.6247  142.6027  168.9896 C.3     1  UNL1        0.0129
     28 C         140.4298  142.6597  167.5034 C.3     1  UNL1        0.0129
     29 C         140.2502  140.3651  169.3559 C.3     1  UNL1        0.4006
     30 F         140.2180  139.3747  170.4819 F       1  UNL1       -0.1697
     31 F         138.9943  140.9985  169.8768 F       1  UNL1       -0.1697
     32 F         141.5062  139.7318  168.8348 F       1  UNL1       -0.1697
@<TRIPOS>BOND
     1    17    18    3
     2    18    11    1
     3    11    12   ar
     4    12    13   ar
     5    13    14   ar
     6    14    10    1
     7    10     5    1
     8     5     6   ar
     9     6     7   ar
    10     7     8   ar
    11     8     1    1
    12     1     2   am
    13     2     3    2
    14     2    19    1
    15    19    20    1
    16    20    21   ar
    17    21    22   ar
    18    22    23   ar
    19    23    26    1
    20    26    29    1
    21    29    30    1
    22    29    31    1
    23    29    32    1
    24    26    27    1
    25    27    28    1
    26    23    24   ar
    27    24    25   ar
    28     8     9   ar
    29    14    15   ar
    30    15    16   ar
    31    16    11   ar
    32     9     5   ar
    33    25    20   ar
    34    28    26    1
    35     1     4    1
@<TRIPOS>MOLECULE
*****
 32 35 0 0 0
SMALL
GASTEIGER

@<TRIPOS>ATOM
      1 N         137.5499  140.5339  163.0072 N.am    1  UNL1       -0.2677
      2 C         138.5099  139.7491  163.8512 C.2     1  UNL1        0.2316
      3 O         139.7531  139.1764  163.2377 O.2     1  UNL1       -0.2744
      4 H         136.7340  140.9098  163.4099 H       1  UNL1        0.1563
      5 N         138.5912  141.7312  159.4649 N.ar    1  UNL1       -0.2421
      6 C         137.9467  140.4143  159.1480 C.ar    1  UNL1        0.0985
      7 C         137.4782  139.8055  160.4364 C.ar    1  UNL1        0.0564
      8 C         137.8331  140.7461  161.5496 C.ar    1  UNL1        0.1555
      9 N         138.5210  141.9363  160.9493 N.ar    1  UNL1       -0.1536
     10 C         139.1991  142.6770  158.4720 C.3     1  UNL1        0.1728
     11 C         143.5908  142.4265  157.5232 C.ar    1  UNL1        0.0875
     12 C         142.6484  141.3871  156.9928 C.ar    1  UNL1        0.0131
     13 C         141.1845  141.4705  157.3091 C.ar    1  UNL1        0.0174
     14 C         140.6630  142.5935  158.1557 C.ar    1  UNL1        0.0837
     15 N         141.6054  143.6330  158.6861 N.ar    1  UNL1       -0.2454
     16 C         143.0693  143.5495  158.3699 C.ar    1  UNL1        0.1087
     17 N         146.5186  142.2596  156.8907 N.1     1  UNL1       -0.1908
     18 C         145.0547  142.3431  157.2069 C.1     1  UNL1        0.1020
     19 C         138.2267  139.5368  165.3089 C.3     1  UNL1        0.1117
     20 C         139.0261  140.2725  166.3431 C.ar    1  UNL1       -0.0131
     21 C         139.1531  139.7144  167.7296 C.ar    1  UNL1       -0.0041
     22 C         139.9527  140.4501  168.7639 C.ar    1  UNL1       -0.0043
     23 C         140.6251  141.7437  168.4116 C.ar    1  UNL1       -0.0149
     24 C         140.4981  142.3018  167.0251 C.ar    1  UNL1       -0.0043
     25 C         139.6986  141.5662  165.9908 C.ar    1  UNL1       -0.0041
     26 C         141.4246  142.4794  169.4459 C.3     1  UNL1        0.1063
     27 C         142.6094  143.0329  170.1806 C.3     1  UNL1        0.0129
     28 C         142.8118  142.2105  168.9425 C.3     1  UNL1        0.0129
     29 C         140.3151  143.0037  170.3084 C.3     1  UNL1        0.4006
     30 F         139.2056  143.5282  171.1709 F       1  UNL1       -0.1697
     31 F         140.5825  141.9205  171.3109 F       1  UNL1       -0.1697
     32 F         140.0477  144.0870  169.3059 F       1  UNL1       -0.1697
@<TRIPOS>BOND
     1    17    18    3
     2    18    11    1
     3    11    12   ar
     4    12    13   ar
     5    13    14   ar
     6    14    10    1
     7    10     5    1
     8     5     6   ar
     9     6     7   ar
    10     7     8   ar
    11     8     1    1
    12     1     2   am
    13     2     3    2
    14     2    19    1
    15    19    20    1
    16    20    21   ar
    17    21    22   ar
    18    22    23   ar
    19    23    26    1
    20    26    29    1
    21    29    30    1
    22    29    31    1
    23    29    32    1
    24    26    27    1
    25    27    28    1
    26    23    24   ar
    27    24    25   ar
    28     8     9   ar
    29    14    15   ar
    30    15    16   ar
    31    16    11   ar
    32     9     5   ar
    33    25    20   ar
    34    28    26    1
    35     1     4    1
@<TRIPOS>MOLECULE
*****
 32 35 0 0 0
SMALL
GASTEIGER

@<TRIPOS>ATOM
      1 N         141.8227  139.2108  162.5967 N.am    1  UNL1       -0.2677
      2 C         141.7421  138.0456  163.5378 C.2     1  UNL1        0.2316
      3 O         140.9412  136.8337  163.1641 O.2     1  UNL1       -0.2744
      4 H         142.3483  140.0063  162.8420 H       1  UNL1        0.1563
      5 N         140.6435  138.9591  158.9073 N.ar    1  UNL1       -0.2421
      6 C         139.3448  139.2252  159.6092 C.ar    1  UNL1        0.0985
      7 C         139.6284  139.3518  161.0767 C.ar    1  UNL1        0.0564
      8 C         141.1025  139.1641  161.2818 C.ar    1  UNL1        0.1555
      9 N         141.7298  138.9214  159.9411 N.ar    1  UNL1       -0.1536
     10 C         140.8242  138.7649  157.4310 C.3     1  UNL1        0.1728
     11 C         142.3576  134.8413  155.8487 C.ar    1  UNL1        0.0875
     12 C         141.0806  135.4181  155.3136 C.ar    1  UNL1        0.0131
     13 C         140.5694  136.7260  155.8410 C.ar    1  UNL1        0.0174
     14 C         141.3353  137.4570  156.9036 C.ar    1  UNL1        0.0837
     15 N         142.6123  136.8801  157.4387 N.ar    1  UNL1       -0.2454
     16 C         143.1235  135.5723  156.9112 C.ar    1  UNL1        0.1087
     17 N         143.3799  132.2255  154.7939 N.1     1  UNL1       -0.1908
     18 C         142.8687  133.5334  155.3213 C.1     1  UNL1        0.1020
     19 C         142.4623  138.0924  164.8528 C.3     1  UNL1        0.1117
     20 C         141.9368  138.9499  165.9657 C.ar    1  UNL1       -0.0131
     21 C         140.5417  139.4965  165.8966 C.ar    1  UNL1       -0.0041
     22 C         140.0162  140.3541  167.0096 C.ar    1  UNL1       -0.0043
     23 C         140.8859  140.6649  168.1914 C.ar    1  UNL1       -0.0149
     24 C         142.2810  140.1182  168.2606 C.ar    1  UNL1       -0.0043
     25 C         142.8065  139.2607  167.1477 C.ar    1  UNL1       -0.0041
     26 C         140.3603  141.5224  169.3044 C.3     1  UNL1        0.1063
     27 C         139.9649  142.7485  170.0727 C.3     1  UNL1        0.0129
     28 C         140.5523  142.8814  168.6989 C.3     1  UNL1        0.0129
     29 C         139.9858  140.4614  170.2963 C.3     1  UNL1        0.4006
     30 F         139.6112  139.4003  171.2881 F       1  UNL1       -0.1697
     31 F         141.2707  140.6970  171.0335 F       1  UNL1       -0.1697
     32 F         138.7009  140.2258  169.5590 F       1  UNL1       -0.1697
@<TRIPOS>BOND
     1    17    18    3
     2    18    11    1
     3    11    12   ar
     4    12    13   ar
     5    13    14   ar
     6    14    10    1
     7    10     5    1
     8     5     6   ar
     9     6     7   ar
    10     7     8   ar
    11     8     1    1
    12     1     2   am
    13     2     3    2
    14     2    19    1
    15    19    20    1
    16    20    21   ar
    17    21    22   ar
    18    22    23   ar
    19    23    26    1
    20    26    29    1
    21    29    30    1
    22    29    31    1
    23    29    32    1
    24    26    27    1
    25    27    28    1
    26    23    24   ar
    27    24    25   ar
    28     8     9   ar
    29    14    15   ar
    30    15    16   ar
    31    16    11   ar
    32     9     5   ar
    33    25    20   ar
    34    28    26    1
    35     1     4    1
