@<TRIPOS>MOLECULE
*****
 32 36 0 0 0
SMALL
GASTEIGER

@<TRIPOS>ATOM
      1 C         139.9787  137.9699  162.4216 C.3     1  UNL1        0.0037
      2 C         139.9216  137.7933  163.9100 C.3     1  UNL1        0.0216
      3 C         141.1377  138.0663  164.7448 C.3     1  UNL1        0.0934
      4 N         142.4107  138.5158  164.0911 N.am    1  UNL1       -0.2793
      5 C         143.6266  138.7888  164.9259 C.2     1  UNL1        0.2301
      6 O         144.8997  139.2384  164.2722 O.2     1  UNL1       -0.2745
      7 C         142.4677  138.6924  162.6027 C.3     1  UNL1        0.0934
      8 C         141.2517  138.4195  161.7679 C.3     1  UNL1        0.0216
      9 C         138.7627  137.6970  161.5868 C.3     1  UNL1        0.0048
     10 C         137.5929  138.6346  161.6365 C.3     1  UNL1        0.0263
     11 O         138.8000  145.6403  161.9449 O.2     1  UNL1       -0.2449
     12 C         138.4179  144.4441  162.7653 C.2     1  UNL1        0.3413
     13 O         138.1210  144.4417  164.2356 O.3     1  UNL1       -0.4404
     14 C         137.7852  143.0363  164.6384 C.3     1  UNL1        0.2356
     15 C         137.8745  142.1702  163.4170 C.ar    1  UNL1        0.0272
     16 C         137.6503  140.7016  163.2094 C.ar    1  UNL1       -0.0047
     17 C         137.8171  140.1032  161.8442 C.ar    1  UNL1       -0.0224
     18 C         138.2081  140.9732  160.6865 C.ar    1  UNL1       -0.0041
     19 C         138.4323  142.4417  160.8941 C.ar    1  UNL1        0.0059
     20 C         138.2655  143.0402  162.2594 C.ar    1  UNL1        0.0751
     21 C         143.5696  138.6122  166.4144 C.3     1  UNL1        0.1116
     22 C         142.8069  139.5910  167.2571 C.ar    1  UNL1       -0.0130
     23 C         142.3491  139.2007  168.6312 C.ar    1  UNL1       -0.0022
     24 C         141.5864  140.1795  169.4739 C.ar    1  UNL1        0.0190
     25 C         141.2815  141.5486  168.9426 C.ar    1  UNL1        0.0862
     26 C         141.7392  141.9390  167.5685 C.ar    1  UNL1        0.0190
     27 C         142.5019  140.9602  166.7258 C.ar    1  UNL1       -0.0022
     28 N         140.5187  142.5275  169.7853 N.ar    1  UNL1       -0.1886
     29 C         140.6141  144.0223  169.7047 C.ar    1  UNL1        0.2258
     30 N         139.6811  144.6020  170.7262 N.ar    1  UNL1       -0.1045
     31 N         139.0090  143.4655  171.4380 N.ar    1  UNL1       -0.0222
     32 N         139.5267  142.1834  170.8565 N.ar    1  UNL1       -0.0385
@<TRIPOS>BOND
     1    11    12    2
     2    12    13    1
     3    13    14    1
     4    14    15    1
     5    15    16   ar
     6    16    17   ar
     7    17    10    1
     8    10     9    1
     9     9     1    1
    10     1     2    1
    11     2     3    1
    12     3     4    1
    13     4     5   am
    14     5     6    2
    15     5    21    1
    16    21    22    1
    17    22    23   ar
    18    23    24   ar
    19    24    25   ar
    20    25    28    1
    21    28    29   ar
    22    29    30   ar
    23    30    31   ar
    24    31    32   ar
    25    25    26   ar
    26    26    27   ar
    27     4     7    1
    28     7     8    1
    29    17    18   ar
    30    18    19   ar
    31    19    20   ar
    32    20    12    1
    33    20    15   ar
    34     8     1    1
    35    27    22   ar
    36    32    28   ar
@<TRIPOS>MOLECULE
*****
 32 36 0 0 0
SMALL
GASTEIGER

@<TRIPOS>ATOM
      1 C         140.4712  138.2607  161.9171 C.3     1  UNL1        0.0037
      2 C         140.2254  137.9660  163.3672 C.3     1  UNL1        0.0216
      3 C         141.3308  138.1409  164.3660 C.3     1  UNL1        0.0934
      4 N         142.6820  138.6105  163.9147 N.am    1  UNL1       -0.2793
      5 C         143.7873  138.7854  164.9134 C.2     1  UNL1        0.2301
      6 O         145.1386  139.2551  164.4621 O.2     1  UNL1       -0.2745
      7 C         142.9278  138.9052  162.4646 C.3     1  UNL1        0.0934
      8 C         141.8225  138.7303  161.4658 C.3     1  UNL1        0.0216
      9 C         139.3659  138.0858  160.9183 C.3     1  UNL1        0.0048
     10 C         138.4745  139.2426  160.5758 C.3     1  UNL1        0.0263
     11 O         138.0619  144.7477  165.0653 O.2     1  UNL1       -0.2449
     12 C         138.6936  144.2754  163.7894 C.2     1  UNL1        0.3413
     13 O         139.6389  145.0614  162.9301 O.3     1  UNL1       -0.4404
     14 C         140.0204  144.2060  161.7584 C.3     1  UNL1        0.2356
     15 C         139.3108  142.8914  161.8936 C.ar    1  UNL1        0.0272
     16 C         139.3054  141.6608  161.0360 C.ar    1  UNL1       -0.0047
     17 C         138.4799  140.4732  161.4335 C.ar    1  UNL1       -0.0224
     18 C         137.6599  140.5161  162.6888 C.ar    1  UNL1       -0.0041
     19 C         137.6653  141.7467  163.5465 C.ar    1  UNL1        0.0059
     20 C         138.4907  142.9343  163.1489 C.ar    1  UNL1        0.0751
     21 C         143.5415  138.4908  166.3635 C.3     1  UNL1        0.1116
     22 C         142.7828  139.4698  167.2097 C.ar    1  UNL1       -0.0130
     23 C         142.5644  139.1901  168.6671 C.ar    1  UNL1       -0.0022
     24 C         141.8058  140.1690  169.5132 C.ar    1  UNL1        0.0190
     25 C         141.2655  141.4277  168.9020 C.ar    1  UNL1        0.0862
     26 C         141.4839  141.7075  167.4446 C.ar    1  UNL1        0.0190
     27 C         142.2425  140.7285  166.5984 C.ar    1  UNL1       -0.0022
     28 N         140.5068  142.4068  169.7481 N.ar    1  UNL1       -0.1886
     29 C         140.6641  143.8983  169.7264 C.ar    1  UNL1        0.2258
     30 N         139.7121  144.4795  170.7294 N.ar    1  UNL1       -0.1045
     31 N         138.9665  143.3471  171.3711 N.ar    1  UNL1       -0.0222
     32 N         139.4577  142.0661  170.7646 N.ar    1  UNL1       -0.0385
@<TRIPOS>BOND
     1    11    12    2
     2    12    13    1
     3    13    14    1
     4    14    15    1
     5    15    16   ar
     6    16    17   ar
     7    17    10    1
     8    10     9    1
     9     9     1    1
    10     1     2    1
    11     2     3    1
    12     3     4    1
    13     4     5   am
    14     5     6    2
    15     5    21    1
    16    21    22    1
    17    22    23   ar
    18    23    24   ar
    19    24    25   ar
    20    25    28    1
    21    28    29   ar
    22    29    30   ar
    23    30    31   ar
    24    31    32   ar
    25    25    26   ar
    26    26    27   ar
    27     4     7    1
    28     7     8    1
    29    17    18   ar
    30    18    19   ar
    31    19    20   ar
    32    20    12    1
    33    20    15   ar
    34     8     1    1
    35    27    22   ar
    36    32    28   ar
@<TRIPOS>MOLECULE
*****
 32 36 0 0 0
SMALL
GASTEIGER

@<TRIPOS>ATOM
      1 C         142.8077  141.4142  161.0861 C.3     1  UNL1        0.0037
      2 C         143.3367  141.3901  162.4895 C.3     1  UNL1        0.0216
      3 C         142.9872  140.2531  163.4033 C.3     1  UNL1        0.0934
      4 N         142.1086  139.1402  162.9137 N.am    1  UNL1       -0.2793
      5 C         141.7591  138.0033  163.8276 C.2     1  UNL1        0.2301
      6 O         140.8806  136.8903  163.3380 O.2     1  UNL1       -0.2745
      7 C         141.5796  139.1643  161.5103 C.3     1  UNL1        0.0934
      8 C         141.9292  140.3013  160.5965 C.3     1  UNL1        0.0216
      9 C         143.1572  142.5512  160.1722 C.3     1  UNL1        0.0048
     10 C         142.3934  143.8397  160.2521 C.3     1  UNL1        0.0263
     11 O         138.5822  145.4018  166.0544 O.2     1  UNL1       -0.2449
     12 C         138.5253  144.7163  164.7214 C.2     1  UNL1        0.3413
     13 O         137.3348  144.0106  164.1429 O.3     1  UNL1       -0.4404
     14 C         137.7228  143.4744  162.7968 C.3     1  UNL1        0.2356
     15 C         139.1530  143.8488  162.5433 C.ar    1  UNL1        0.0272
     16 C         140.0678  143.5899  161.3831 C.ar    1  UNL1       -0.0047
     17 C         141.4786  144.0985  161.4123 C.ar    1  UNL1       -0.0224
     18 C         141.9746  144.8661  162.6018 C.ar    1  UNL1       -0.0041
     19 C         141.0598  145.1250  163.7620 C.ar    1  UNL1        0.0059
     20 C         139.6491  144.6163  163.7328 C.ar    1  UNL1        0.0751
     21 C         142.2881  137.9792  165.2310 C.3     1  UNL1        0.1116
     22 C         141.8010  138.9832  166.2335 C.ar    1  UNL1       -0.0130
     23 C         140.4099  139.5342  166.1279 C.ar    1  UNL1       -0.0022
     24 C         139.9228  140.5381  167.1302 C.ar    1  UNL1        0.0190
     25 C         140.8268  140.9910  168.2382 C.ar    1  UNL1        0.0862
     26 C         142.2179  140.4399  168.3438 C.ar    1  UNL1        0.0190
     27 C         142.7050  139.4360  167.3414 C.ar    1  UNL1       -0.0022
     28 N         140.3397  141.9950  169.2407 N.ar    1  UNL1       -0.1886
     29 C         140.6133  143.4696  169.2161 C.ar    1  UNL1        0.2258
     30 N         139.9362  144.0865  170.4039 N.ar    1  UNL1       -0.1045
     31 N         139.2440  142.9931  171.1626 N.ar    1  UNL1       -0.0222
     32 N         139.4934  141.7005  170.4437 N.ar    1  UNL1       -0.0385
@<TRIPOS>BOND
     1    11    12    2
     2    12    13    1
     3    13    14    1
     4    14    15    1
     5    15    16   ar
     6    16    17   ar
     7    17    10    1
     8    10     9    1
     9     9     1    1
    10     1     2    1
    11     2     3    1
    12     3     4    1
    13     4     5   am
    14     5     6    2
    15     5    21    1
    16    21    22    1
    17    22    23   ar
    18    23    24   ar
    19    24    25   ar
    20    25    28    1
    21    28    29   ar
    22    29    30   ar
    23    30    31   ar
    24    31    32   ar
    25    25    26   ar
    26    26    27   ar
    27     4     7    1
    28     7     8    1
    29    17    18   ar
    30    18    19   ar
    31    19    20   ar
    32    20    12    1
    33    20    15   ar
    34     8     1    1
    35    27    22   ar
    36    32    28   ar
@<TRIPOS>MOLECULE
*****
 32 36 0 0 0
SMALL
GASTEIGER

@<TRIPOS>ATOM
      1 C         139.6161  142.2594  161.0431 C.3     1  UNL1        0.0037
      2 C         138.7549  142.1075  162.2618 C.3     1  UNL1        0.0216
      3 C         138.7250  140.8027  163.0011 C.3     1  UNL1        0.0934
      4 N         139.5563  139.6498  162.5218 N.am    1  UNL1       -0.2793
      5 C         139.5263  138.3450  163.2611 C.2     1  UNL1        0.2301
      6 O         140.3577  137.1921  162.7817 O.2     1  UNL1       -0.2745
      7 C         140.4175  139.8017  161.3031 C.3     1  UNL1        0.0934
      8 C         140.4474  141.1065  160.5638 C.3     1  UNL1        0.0216
      9 C         139.6460  143.5642  160.3038 C.3     1  UNL1        0.0048
     10 C         140.7784  144.5236  160.5212 C.3     1  UNL1        0.0263
     11 O         144.9663  143.9477  166.2450 O.2     1  UNL1       -0.2449
     12 C         144.7609  143.4506  164.8447 C.2     1  UNL1        0.3413
     13 O         145.6179  142.4479  164.1305 O.3     1  UNL1       -0.4404
     14 C         145.0491  142.2465  162.7573 C.3     1  UNL1        0.2356
     15 C         143.8405  143.1248  162.6227 C.ar    1  UNL1        0.0272
     16 C         142.8792  143.3430  161.4922 C.ar    1  UNL1       -0.0047
     17 C         141.7398  144.3053  161.6518 C.ar    1  UNL1       -0.0224
     18 C         141.5617  145.0495  162.9419 C.ar    1  UNL1       -0.0041
     19 C         142.5230  144.8313  164.0725 C.ar    1  UNL1        0.0059
     20 C         143.6624  143.8689  163.9129 C.ar    1  UNL1        0.0751
     21 C         138.6651  138.1931  164.4798 C.3     1  UNL1        0.1116
     22 C         139.0843  138.8187  165.7771 C.ar    1  UNL1       -0.0130
     23 C         138.1005  138.9419  166.9027 C.ar    1  UNL1       -0.0022
     24 C         138.5196  139.5675  168.2000 C.ar    1  UNL1        0.0190
     25 C         139.9225  140.0698  168.3717 C.ar    1  UNL1        0.0862
     26 C         140.9063  139.9466  167.2461 C.ar    1  UNL1        0.0190
     27 C         140.4872  139.3211  165.9488 C.ar    1  UNL1       -0.0022
     28 N         140.3417  140.6954  169.6690 N.ar    1  UNL1       -0.1886
     29 C         141.5690  140.3493  170.4588 C.ar    1  UNL1        0.2258
     30 N         141.5930  141.2169  171.6822 N.ar    1  UNL1       -0.1045
     31 N         140.3804  142.0993  171.6485 N.ar    1  UNL1       -0.0222
     32 N         139.6071  141.7770  170.4043 N.ar    1  UNL1       -0.0385
@<TRIPOS>BOND
     1    11    12    2
     2    12    13    1
     3    13    14    1
     4    14    15    1
     5    15    16   ar
     6    16    17   ar
     7    17    10    1
     8    10     9    1
     9     9     1    1
    10     1     2    1
    11     2     3    1
    12     3     4    1
    13     4     5   am
    14     5     6    2
    15     5    21    1
    16    21    22    1
    17    22    23   ar
    18    23    24   ar
    19    24    25   ar
    20    25    28    1
    21    28    29   ar
    22    29    30   ar
    23    30    31   ar
    24    31    32   ar
    25    25    26   ar
    26    26    27   ar
    27     4     7    1
    28     7     8    1
    29    17    18   ar
    30    18    19   ar
    31    19    20   ar
    32    20    12    1
    33    20    15   ar
    34     8     1    1
    35    27    22   ar
    36    32    28   ar
@<TRIPOS>MOLECULE
*****
 32 36 0 0 0
SMALL
GASTEIGER

@<TRIPOS>ATOM
      1 C         143.1914  142.0295  165.6385 C.3     1  UNL1        0.0037
      2 C         142.9284  140.9232  164.6604 C.3     1  UNL1        0.0216
      3 C         141.7537  140.0114  164.8574 C.3     1  UNL1        0.0934
      4 N         140.8420  140.2059  166.0325 N.am    1  UNL1       -0.2793
      5 C         139.6674  139.2942  166.2294 C.2     1  UNL1        0.2301
      6 O         138.7556  139.4887  167.4046 O.2     1  UNL1       -0.2745
      7 C         141.1050  141.3123  167.0106 C.3     1  UNL1        0.0934
      8 C         142.2797  142.2241  166.8137 C.3     1  UNL1        0.0216
      9 C         144.3661  142.9413  165.4416 C.3     1  UNL1        0.0048
     10 C         144.1797  144.2707  164.7724 C.3     1  UNL1        0.0263
     11 O         140.4057  144.3911  158.7413 O.2     1  UNL1       -0.2449
     12 C         140.4596  144.9244  160.1422 C.2     1  UNL1        0.3413
     13 O         139.4663  145.8571  160.7694 O.3     1  UNL1       -0.4404
     14 C         139.9091  146.1277  162.1767 C.3     1  UNL1        0.2356
     15 C         141.1760  145.3622  162.4194 C.ar    1  UNL1        0.0272
     16 C         142.0638  145.2463  163.6229 C.ar    1  UNL1       -0.0047
     17 C         143.2918  144.3867  163.5689 C.ar    1  UNL1       -0.0224
     18 C         143.6321  143.6430  162.3115 C.ar    1  UNL1       -0.0041
     19 C         142.7443  143.7589  161.1080 C.ar    1  UNL1        0.0059
     20 C         141.5163  144.6185  161.1620 C.ar    1  UNL1        0.0751
     21 C         139.4044  138.1878  165.2512 C.3     1  UNL1        0.1116
     22 C         139.1860  138.5047  163.8014 C.ar    1  UNL1       -0.0130
     23 C         138.2799  139.6338  163.4087 C.ar    1  UNL1       -0.0022
     24 C         138.0615  139.9508  161.9590 C.ar    1  UNL1        0.0190
     25 C         138.7492  139.1386  160.9019 C.ar    1  UNL1        0.0862
     26 C         139.6553  138.0095  161.2946 C.ar    1  UNL1        0.0190
     27 C         139.8737  137.6926  162.7443 C.ar    1  UNL1       -0.0022
     28 N         138.5308  139.4556  159.4521 N.ar    1  UNL1       -0.1886
     29 C         139.4516  139.0984  158.3231 C.ar    1  UNL1        0.2258
     30 N         138.8431  139.6074  157.0500 N.ar    1  UNL1       -0.1045
     31 N         137.5463  140.2791  157.3922 N.ar    1  UNL1       -0.0222
     32 N         137.3533  140.1853  158.8768 N.ar    1  UNL1       -0.0385
@<TRIPOS>BOND
     1    11    12    2
     2    12    13    1
     3    13    14    1
     4    14    15    1
     5    15    16   ar
     6    16    17   ar
     7    17    10    1
     8    10     9    1
     9     9     1    1
    10     1     2    1
    11     2     3    1
    12     3     4    1
    13     4     5   am
    14     5     6    2
    15     5    21    1
    16    21    22    1
    17    22    23   ar
    18    23    24   ar
    19    24    25   ar
    20    25    28    1
    21    28    29   ar
    22    29    30   ar
    23    30    31   ar
    24    31    32   ar
    25    25    26   ar
    26    26    27   ar
    27     4     7    1
    28     7     8    1
    29    17    18   ar
    30    18    19   ar
    31    19    20   ar
    32    20    12    1
    33    20    15   ar
    34     8     1    1
    35    27    22   ar
    36    32    28   ar
@<TRIPOS>MOLECULE
*****
 32 36 0 0 0
SMALL
GASTEIGER

@<TRIPOS>ATOM
      1 C         142.3358  142.3413  160.0364 C.3     1  UNL1        0.0037
      2 C         141.7785  141.2851  160.9441 C.3     1  UNL1        0.0216
      3 C         142.5861  140.7952  162.1094 C.3     1  UNL1        0.0934
      4 N         143.9509  141.3616  162.3670 N.am    1  UNL1       -0.2793
      5 C         144.7585  140.8717  163.5322 C.2     1  UNL1        0.2301
      6 O         146.1234  141.4380  163.7899 O.2     1  UNL1       -0.2745
      7 C         144.5082  142.4178  161.4594 C.3     1  UNL1        0.0934
      8 C         143.7007  142.9077  160.2941 C.3     1  UNL1        0.0216
      9 C         141.5282  142.8312  158.8712 C.3     1  UNL1        0.0048
     10 C         140.2957  143.6533  159.1055 C.3     1  UNL1        0.0263
     11 O         138.3890  145.3810  165.7397 O.2     1  UNL1       -0.2449
     12 C         138.1979  144.3621  164.6555 C.2     1  UNL1        0.3413
     13 O         137.3285  143.1424  164.7351 O.3     1  UNL1       -0.4404
     14 C         137.4361  142.4106  163.4301 C.3     1  UNL1        0.2356
     15 C         138.3720  143.1781  162.5441 C.ar    1  UNL1        0.0272
     16 C         138.8562  142.9344  161.1455 C.ar    1  UNL1       -0.0047
     17 C         139.8114  143.8969  160.5042 C.ar    1  UNL1       -0.0224
     18 C         140.2822  145.1031  161.2615 C.ar    1  UNL1       -0.0041
     19 C         139.7980  145.3467  162.6601 C.ar    1  UNL1        0.0059
     20 C         138.8428  144.3842  163.3014 C.ar    1  UNL1        0.0751
     21 C         144.2012  139.8154  164.4398 C.3     1  UNL1        0.1116
     22 C         143.5164  140.2078  165.7155 C.ar    1  UNL1       -0.0130
     23 C         143.0822  139.1524  166.6890 C.ar    1  UNL1       -0.0022
     24 C         142.3975  139.5447  167.9646 C.ar    1  UNL1        0.0190
     25 C         142.1470  140.9924  168.2667 C.ar    1  UNL1        0.0862
     26 C         142.5811  142.0478  167.2933 C.ar    1  UNL1        0.0190
     27 C         143.2659  141.6555  166.0177 C.ar    1  UNL1       -0.0022
     28 N         141.4622  141.3847  169.5424 N.ar    1  UNL1       -0.1886
     29 C         140.4875  142.5126  169.7090 C.ar    1  UNL1        0.2258
     30 N         140.0549  142.5430  171.1450 N.ar    1  UNL1       -0.1045
     31 N         140.7622  141.4339  171.8658 N.ar    1  UNL1       -0.0222
     32 N         141.6320  140.7180  170.8753 N.ar    1  UNL1       -0.0385
@<TRIPOS>BOND
     1    11    12    2
     2    12    13    1
     3    13    14    1
     4    14    15    1
     5    15    16   ar
     6    16    17   ar
     7    17    10    1
     8    10     9    1
     9     9     1    1
    10     1     2    1
    11     2     3    1
    12     3     4    1
    13     4     5   am
    14     5     6    2
    15     5    21    1
    16    21    22    1
    17    22    23   ar
    18    23    24   ar
    19    24    25   ar
    20    25    28    1
    21    28    29   ar
    22    29    30   ar
    23    30    31   ar
    24    31    32   ar
    25    25    26   ar
    26    26    27   ar
    27     4     7    1
    28     7     8    1
    29    17    18   ar
    30    18    19   ar
    31    19    20   ar
    32    20    12    1
    33    20    15   ar
    34     8     1    1
    35    27    22   ar
    36    32    28   ar
@<TRIPOS>MOLECULE
*****
 32 36 0 0 0
SMALL
GASTEIGER

@<TRIPOS>ATOM
      1 C         143.2080  139.8807  160.1279 C.3     1  UNL1        0.0037
      2 C         143.8290  139.7770  161.4894 C.3     1  UNL1        0.0216
      3 C         143.0578  139.1641  162.6207 C.3     1  UNL1        0.0934
      4 N         141.6657  138.6551  162.3905 N.am    1  UNL1       -0.2793
      5 C         140.8946  138.0423  163.5217 C.2     1  UNL1        0.2301
      6 O         139.5025  137.5332  163.2916 O.2     1  UNL1       -0.2745
      7 C         141.0448  138.7589  161.0290 C.3     1  UNL1        0.0934
      8 C         141.8159  139.3717  159.8977 C.3     1  UNL1        0.0216
      9 C         143.9791  140.4935  158.9966 C.3     1  UNL1        0.0048
     10 C         144.2091  141.9754  158.9616 C.3     1  UNL1        0.0263
     11 O         139.1913  146.3904  161.4033 O.2     1  UNL1       -0.2449
     12 C         140.4380  145.6497  161.7870 C.2     1  UNL1        0.3413
     13 O         141.0963  145.6704  163.1347 O.3     1  UNL1       -0.4404
     14 C         142.3103  144.7918  163.0709 C.3     1  UNL1        0.2356
     15 C         142.4023  144.2280  161.6839 C.ar    1  UNL1        0.0272
     16 C         143.3903  143.3004  161.0410 C.ar    1  UNL1       -0.0047
     17 C         143.2211  142.9031  159.6046 C.ar    1  UNL1       -0.0224
     18 C         142.0639  143.4333  158.8111 C.ar    1  UNL1       -0.0041
     19 C         141.0759  144.3610  159.4540 C.ar    1  UNL1        0.0059
     20 C         141.2451  144.7583  160.8904 C.ar    1  UNL1        0.0751
     21 C         141.5156  137.9385  164.8832 C.3     1  UNL1        0.1116
     22 C         141.1800  138.9493  165.9396 C.ar    1  UNL1       -0.0130
     23 C         142.2776  139.6889  166.6455 C.ar    1  UNL1       -0.0022
     24 C         141.9421  140.6996  167.7019 C.ar    1  UNL1        0.0190
     25 C         140.5090  140.9707  168.0522 C.ar    1  UNL1        0.0862
     26 C         139.4115  140.2311  167.3463 C.ar    1  UNL1        0.0190
     27 C         139.7470  139.2204  166.2900 C.ar    1  UNL1       -0.0022
     28 N         140.1735  141.9815  169.1086 N.ar    1  UNL1       -0.1886
     29 C         140.5409  143.4356  169.0860 C.ar    1  UNL1        0.2258
     30 N         140.0061  144.0683  170.3364 N.ar    1  UNL1       -0.1045
     31 N         139.3081  143.0052  171.1319 N.ar    1  UNL1       -0.0222
     32 N         139.4116  141.7155  170.3731 N.ar    1  UNL1       -0.0385
@<TRIPOS>BOND
     1    11    12    2
     2    12    13    1
     3    13    14    1
     4    14    15    1
     5    15    16   ar
     6    16    17   ar
     7    17    10    1
     8    10     9    1
     9     9     1    1
    10     1     2    1
    11     2     3    1
    12     3     4    1
    13     4     5   am
    14     5     6    2
    15     5    21    1
    16    21    22    1
    17    22    23   ar
    18    23    24   ar
    19    24    25   ar
    20    25    28    1
    21    28    29   ar
    22    29    30   ar
    23    30    31   ar
    24    31    32   ar
    25    25    26   ar
    26    26    27   ar
    27     4     7    1
    28     7     8    1
    29    17    18   ar
    30    18    19   ar
    31    19    20   ar
    32    20    12    1
    33    20    15   ar
    34     8     1    1
    35    27    22   ar
    36    32    28   ar
@<TRIPOS>MOLECULE
*****
 32 36 0 0 0
SMALL
GASTEIGER

@<TRIPOS>ATOM
      1 C         138.6390  139.8088  159.8009 C.3     1  UNL1        0.0037
      2 C         137.7194  139.8619  160.9847 C.3     1  UNL1        0.0216
      3 C         138.0768  139.1317  162.2454 C.3     1  UNL1        0.0934
      4 N         139.3537  138.3485  162.3221 N.am    1  UNL1       -0.2793
      5 C         139.7111  137.6184  163.5828 C.2     1  UNL1        0.2301
      6 O         140.9881  136.8351  163.6596 O.2     1  UNL1       -0.2745
      7 C         140.2733  138.2954  161.1383 C.3     1  UNL1        0.0934
      8 C         139.9160  139.0255  159.8777 C.3     1  UNL1        0.0216
      9 C         138.2817  140.5389  158.5402 C.3     1  UNL1        0.0048
     10 C         138.8355  141.9093  158.2845 C.3     1  UNL1        0.0263
     11 O         142.3905  145.2868  163.4407 O.2     1  UNL1       -0.2449
     12 C         142.5570  144.4179  162.2294 C.2     1  UNL1        0.3413
     13 O         143.8586  143.9245  161.6704 O.3     1  UNL1       -0.4404
     14 C         143.5571  143.0915  160.4600 C.3     1  UNL1        0.2356
     15 C         142.0692  143.0700  160.2709 C.ar    1  UNL1        0.0272
     16 C         141.1974  142.4098  159.2443 C.ar    1  UNL1       -0.0047
     17 C         139.7074  142.5694  159.3112 C.ar    1  UNL1       -0.0224
     18 C         139.0893  143.3892  160.4048 C.ar    1  UNL1       -0.0041
     19 C         139.9612  144.0493  161.4315 C.ar    1  UNL1        0.0059
     20 C         141.4511  143.8897  161.3645 C.ar    1  UNL1        0.0751
     21 C         138.7915  137.6715  164.7666 C.3     1  UNL1        0.1116
     22 C         139.1096  138.5716  165.9237 C.ar    1  UNL1       -0.0130
     23 C         138.1271  138.7252  167.0466 C.ar    1  UNL1       -0.0022
     24 C         138.4452  139.6252  168.2037 C.ar    1  UNL1        0.0190
     25 C         139.7459  140.3716  168.2377 C.ar    1  UNL1        0.0862
     26 C         140.7284  140.2180  167.1147 C.ar    1  UNL1        0.0190
     27 C         140.4103  139.3180  165.9577 C.ar    1  UNL1       -0.0022
     28 N         140.0640  141.2717  169.3948 N.ar    1  UNL1       -0.1886
     29 C         140.4496  142.7186  169.3063 C.ar    1  UNL1        0.2258
     30 N         140.6763  143.2239  170.7002 N.ar    1  UNL1       -0.1045
     31 N         140.4309  142.0893  171.6503 N.ar    1  UNL1       -0.0222
     32 N         140.0525  140.8828  170.8435 N.ar    1  UNL1       -0.0385
@<TRIPOS>BOND
     1    11    12    2
     2    12    13    1
     3    13    14    1
     4    14    15    1
     5    15    16   ar
     6    16    17   ar
     7    17    10    1
     8    10     9    1
     9     9     1    1
    10     1     2    1
    11     2     3    1
    12     3     4    1
    13     4     5   am
    14     5     6    2
    15     5    21    1
    16    21    22    1
    17    22    23   ar
    18    23    24   ar
    19    24    25   ar
    20    25    28    1
    21    28    29   ar
    22    29    30   ar
    23    30    31   ar
    24    31    32   ar
    25    25    26   ar
    26    26    27   ar
    27     4     7    1
    28     7     8    1
    29    17    18   ar
    30    18    19   ar
    31    19    20   ar
    32    20    12    1
    33    20    15   ar
    34     8     1    1
    35    27    22   ar
    36    32    28   ar
@<TRIPOS>MOLECULE
*****
 32 36 0 0 0
SMALL
GASTEIGER

@<TRIPOS>ATOM
      1 C         137.9634  143.2335  163.7009 C.3     1  UNL1        0.0037
      2 C         138.1045  143.4424  162.2223 C.3     1  UNL1        0.0216
      3 C         138.0490  142.2684  161.2902 C.3     1  UNL1        0.0934
      4 N         137.8523  140.8855  161.8368 N.am    1  UNL1       -0.2793
      5 C         137.7968  139.7115  160.9048 C.2     1  UNL1        0.2301
      6 O         137.6001  138.3285  161.4514 O.2     1  UNL1       -0.2745
      7 C         137.7111  140.6765  163.3155 C.3     1  UNL1        0.0934
      8 C         137.7666  141.8505  164.2475 C.3     1  UNL1        0.0216
      9 C         138.0189  144.4074  164.6329 C.3     1  UNL1        0.0048
     10 C         139.2213  144.6165  165.5050 C.3     1  UNL1        0.0263
     11 O         145.3610  141.2590  164.2154 O.2     1  UNL1       -0.2449
     12 C         144.4930  142.3996  163.7732 C.2     1  UNL1        0.3413
     13 O         144.7947  143.3562  162.6579 O.3     1  UNL1       -0.4404
     14 C         143.6590  144.3317  162.5640 C.3     1  UNL1        0.2356
     15 C         142.6555  143.9779  163.6213 C.ar    1  UNL1        0.0272
     16 C         141.3390  144.5888  164.0001 C.ar    1  UNL1       -0.0047
     17 C         140.5379  144.0056  165.1262 C.ar    1  UNL1       -0.0224
     18 C         141.0533  142.8115  165.8735 C.ar    1  UNL1       -0.0041
     19 C         142.3698  142.2006  165.4947 C.ar    1  UNL1        0.0059
     20 C         143.1709  142.7838  164.3686 C.ar    1  UNL1        0.0751
     21 C         137.9380  139.9205  159.4262 C.3     1  UNL1        0.1116
     22 C         139.2782  139.7629  158.7710 C.ar    1  UNL1       -0.0130
     23 C         140.0669  140.9760  158.3755 C.ar    1  UNL1       -0.0022
     24 C         141.4070  140.8185  157.7204 C.ar    1  UNL1        0.0190
     25 C         141.9585  139.4479  157.4609 C.ar    1  UNL1        0.0862
     26 C         141.1698  138.2349  157.8565 C.ar    1  UNL1        0.0190
     27 C         139.8297  138.3924  158.5115 C.ar    1  UNL1       -0.0022
     28 N         143.2987  139.2903  156.8058 N.ar    1  UNL1       -0.1886
     29 C         144.3579  140.3471  156.6997 C.ar    1  UNL1        0.2258
     30 N         145.5288  139.7582  155.9701 N.ar    1  UNL1       -0.1045
     31 N         145.1932  138.3374  155.6252 N.ar    1  UNL1       -0.0222
     32 N         143.8149  138.0483  156.1417 N.ar    1  UNL1       -0.0385
@<TRIPOS>BOND
     1    11    12    2
     2    12    13    1
     3    13    14    1
     4    14    15    1
     5    15    16   ar
     6    16    17   ar
     7    17    10    1
     8    10     9    1
     9     9     1    1
    10     1     2    1
    11     2     3    1
    12     3     4    1
    13     4     5   am
    14     5     6    2
    15     5    21    1
    16    21    22    1
    17    22    23   ar
    18    23    24   ar
    19    24    25   ar
    20    25    28    1
    21    28    29   ar
    22    29    30   ar
    23    30    31   ar
    24    31    32   ar
    25    25    26   ar
    26    26    27   ar
    27     4     7    1
    28     7     8    1
    29    17    18   ar
    30    18    19   ar
    31    19    20   ar
    32    20    12    1
    33    20    15   ar
    34     8     1    1
    35    27    22   ar
    36    32    28   ar
