@<TRIPOS>MOLECULE
*****
 39 43 0 0 0
SMALL
GASTEIGER

@<TRIPOS>ATOM
      1 N         139.3659  143.0212  161.2096 N.am    1  UNL1       -0.3018
      2 C         138.1685  142.9110  162.1062 C.2     1  UNL1        0.2425
      3 O         137.3972  141.6263  162.1730 O.2     1  UNL1       -0.2733
      4 H         139.8722  143.8644  161.1658 H       1  UNL1        0.1495
      5 N         140.3949  140.1853  159.2063 N.3     1  UNL1       -0.2711
      6 C         140.2961  141.6646  158.9787 C.3     1  UNL1        0.0933
      7 C         139.7921  141.8465  160.3799 C.3     1  UNL1        0.1035
      8 C         139.8910  140.3672  160.6074 C.3     1  UNL1        0.0933
      9 C         141.6735  136.6612  156.7171 C.3     1  UNL1        0.0301
     10 C         142.6443  137.3026  157.6638 C.3     1  UNL1        0.0063
     11 C         142.2181  138.4772  158.4935 C.3     1  UNL1        0.0163
     12 C         140.8211  139.0106  158.3766 C.3     1  UNL1        0.0576
     13 C         139.8502  138.3693  157.4299 C.3     1  UNL1        0.0163
     14 C         140.2764  137.1946  156.6002 C.3     1  UNL1        0.0063
     15 C         143.1022  133.3836  155.2068 C.ar    1  UNL1        0.0876
     16 N         142.4095  133.9741  154.0146 N.ar    1  UNL1       -0.2415
     17 C         141.7899  135.2738  154.4352 C.ar    1  UNL1        0.1012
     18 C         142.0997  135.4866  155.8874 C.ar    1  UNL1        0.0271
     19 S         142.9109  134.3183  156.3643 S.2     1  UNL1       -0.0751
     20 C         144.8924  131.8448  156.2921 C.3     1  UNL1        0.0069
     21 C         143.8544  132.0861  155.2365 C.3     1  UNL1        0.0465
     22 C         143.5686  131.0300  154.2104 C.3     1  UNL1        0.0069
     23 C         137.7423  144.0857  162.9359 C.3     1  UNL1        0.1747
     24 N         138.4557  144.3964  164.2184 N.pl3   1  UNL1       -0.3093
     25 H         138.0761  145.0528  164.8463 H       1  UNL1        0.1487
     26 C         139.7475  143.7071  164.5440 C.ar    1  UNL1        0.1500
     27 N         141.1229  144.2705  164.3420 N.ar    1  UNL1       -0.1544
     28 N         142.1161  143.2448  164.8020 N.ar    1  UNL1       -0.2476
     29 C         143.6088  143.3909  164.7797 C.3     1  UNL1        0.1537
     30 C         141.3545  142.0475  165.2883 C.ar    1  UNL1        0.0807
     31 C         141.8049  140.7340  165.8556 C.ar    1  UNL1        0.0188
     32 C         140.7914  139.7063  166.2635 C.ar    1  UNL1        0.0054
     33 C         139.3275  139.9919  166.1040 C.ar    1  UNL1        0.0716
     34 C         138.8771  141.3054  165.5367 C.ar    1  UNL1        0.0082
     35 C         139.8906  142.3332  165.1288 C.ar    1  UNL1        0.0503
     36 C         138.3140  138.9640  166.5119 C.3     1  UNL1        0.4186
     37 F         137.3006  137.9362  166.9199 F       1  UNL1       -0.1659
     38 F         138.1572  138.5499  165.0788 F       1  UNL1       -0.1659
     39 F         138.4709  139.3782  167.9450 F       1  UNL1       -0.1659
@<TRIPOS>BOND
     1    20    21    1
     2    21    22    1
     3    21    15    1
     4    15    16   ar
     5    16    17   ar
     6    17    18   ar
     7     9    18    1
     8     9    10    1
     9    10    11    1
    10    11    12    1
    11    12     5    1
    12     5     6    1
    13     6     7    1
    14     7     1    1
    15     1     2   am
    16     2     3    2
    17     2    23    1
    18    23    24    1
    19    24    26    1
    20    26    27   ar
    21    27    28   ar
    22    28    29    1
    23    28    30   ar
    24    30    31   ar
    25    31    32   ar
    26    32    33   ar
    27    33    36    1
    28    36    37    1
    29    36    38    1
    30    36    39    1
    31    33    34   ar
    32    34    35   ar
    33     7     8    1
    34    12    13    1
    35    13    14    1
    36    18    19   ar
    37    19    15   ar
    38    14     9    1
    39     8     5    1
    40    35    26   ar
    41    35    30   ar
    42     1     4    1
    43    24    25    1
@<TRIPOS>MOLECULE
*****
 39 43 0 0 0
SMALL
GASTEIGER

@<TRIPOS>ATOM
      1 N         139.4048  143.2358  161.3070 N.am    1  UNL1       -0.3018
      2 C         138.1708  143.1379  162.1541 C.2     1  UNL1        0.2425
      3 O         137.3609  141.8753  162.1567 O.2     1  UNL1       -0.2733
      4 H         139.9363  144.0645  161.3054 H       1  UNL1        0.1495
      5 N         140.4289  140.4235  159.2682 N.3     1  UNL1       -0.2711
      6 C         140.2265  140.6508  160.7370 C.3     1  UNL1        0.0933
      7 C         139.8290  142.0709  160.4625 C.3     1  UNL1        0.1035
      8 C         140.0314  141.8436  158.9937 C.3     1  UNL1        0.0933
      9 C         141.7014  136.9291  156.7345 C.3     1  UNL1        0.0301
     10 C         142.7206  137.6886  157.5311 C.3     1  UNL1        0.0063
     11 C         142.2964  138.8534  158.3756 C.3     1  UNL1        0.0163
     12 C         140.8531  139.2587  158.4236 C.3     1  UNL1        0.0576
     13 C         139.8339  138.4992  157.6271 C.3     1  UNL1        0.0163
     14 C         140.2581  137.3344  156.7826 C.3     1  UNL1        0.0063
     15 C         143.0394  133.6237  155.2017 C.ar    1  UNL1        0.0876
     16 N         142.5181  134.3198  153.9795 N.ar    1  UNL1       -0.2415
     17 C         141.9534  135.6427  154.4049 C.ar    1  UNL1        0.1012
     18 C         142.1257  135.7643  155.8901 C.ar    1  UNL1        0.0271
     19 S         142.7969  134.5164  156.3825 S.2     1  UNL1       -0.0751
     20 C         143.2467  131.2021  154.2834 C.3     1  UNL1        0.0069
     21 C         143.6891  132.2721  155.2370 C.3     1  UNL1        0.0465
     22 C         144.7813  131.9907  156.2259 C.3     1  UNL1        0.0069
     23 C         137.7466  144.3027  162.9986 C.3     1  UNL1        0.1747
     24 N         138.5506  144.6864  164.2055 N.pl3   1  UNL1       -0.3093
     25 H         138.1174  145.1485  164.9591 H       1  UNL1        0.1487
     26 C         140.0148  144.3658  164.2641 C.ar    1  UNL1        0.1500
     27 N         141.0846  144.9692  163.4031 N.ar    1  UNL1       -0.1544
     28 N         142.3972  144.3619  163.8009 N.ar    1  UNL1       -0.2476
     29 C         143.7338  144.6778  163.1977 C.3     1  UNL1        0.1537
     30 C         142.1386  143.3831  164.9077 C.ar    1  UNL1        0.0807
     31 C         143.0537  142.4900  165.6919 C.ar    1  UNL1        0.0188
     32 C         142.4963  141.5993  166.7624 C.ar    1  UNL1        0.0054
     33 C         141.0239  141.6017  167.0487 C.ar    1  UNL1        0.0716
     34 C         140.1088  142.4948  166.2645 C.ar    1  UNL1        0.0082
     35 C         140.6662  143.3855  165.1940 C.ar    1  UNL1        0.0503
     36 C         140.4665  140.7109  168.1192 C.3     1  UNL1        0.4186
     37 F         139.9092  139.8202  169.1897 F       1  UNL1       -0.1659
     38 F         140.4623  139.5590  167.1585 F       1  UNL1       -0.1659
     39 F         140.4708  141.8629  169.0799 F       1  UNL1       -0.1659
@<TRIPOS>BOND
     1    20    21    1
     2    21    22    1
     3    21    15    1
     4    15    16   ar
     5    16    17   ar
     6    17    18   ar
     7     9    18    1
     8     9    10    1
     9    10    11    1
    10    11    12    1
    11    12     5    1
    12     5     6    1
    13     6     7    1
    14     7     1    1
    15     1     2   am
    16     2     3    2
    17     2    23    1
    18    23    24    1
    19    24    26    1
    20    26    27   ar
    21    27    28   ar
    22    28    29    1
    23    28    30   ar
    24    30    31   ar
    25    31    32   ar
    26    32    33   ar
    27    33    36    1
    28    36    37    1
    29    36    38    1
    30    36    39    1
    31    33    34   ar
    32    34    35   ar
    33     7     8    1
    34    12    13    1
    35    13    14    1
    36    18    19   ar
    37    19    15   ar
    38    14     9    1
    39     8     5    1
    40    35    26   ar
    41    35    30   ar
    42     1     4    1
    43    24    25    1
@<TRIPOS>MOLECULE
*****
 39 43 0 0 0
SMALL
GASTEIGER

@<TRIPOS>ATOM
      1 N         142.9233  137.3108  157.8507 N.am    1  UNL1       -0.3018
      2 C         141.6746  137.2279  157.0237 C.2     1  UNL1        0.2425
      3 O         140.3530  137.6121  157.6201 O.2     1  UNL1       -0.2733
      4 H         143.7907  137.0586  157.4592 H       1  UNL1        0.1495
      5 N         142.7471  138.4389  161.2874 N.3     1  UNL1       -0.2711
      6 C         143.2766  137.2164  160.5982 C.3     1  UNL1        0.0933
      7 C         142.8503  137.7781  159.2742 C.3     1  UNL1        0.1035
      8 C         142.3208  139.0006  159.9634 C.3     1  UNL1        0.0933
      9 C         142.5281  139.8408  165.5578 C.3     1  UNL1        0.0301
     10 C         141.3904  139.0641  164.9640 C.3     1  UNL1        0.0063
     11 C         141.4634  138.5969  163.5406 C.3     1  UNL1        0.0163
     12 C         142.6741  138.9062  162.7108 C.3     1  UNL1        0.0576
     13 C         143.8118  139.6828  163.3046 C.3     1  UNL1        0.0163
     14 C         143.7388  140.1501  164.7281 C.3     1  UNL1        0.0063
     15 C         142.1674  141.7173  168.9362 C.ar    1  UNL1        0.0876
     16 N         142.5175  140.3370  169.4074 N.ar    1  UNL1       -0.2415
     17 C         142.6952  139.4659  168.1992 C.ar    1  UNL1        0.1012
     18 C         142.4550  140.3080  166.9813 C.ar    1  UNL1        0.0271
     19 S         142.1288  141.6995  167.4368 S.2     1  UNL1       -0.0751
     20 C         140.5745  143.6016  169.7501 C.3     1  UNL1        0.0069
     21 C         141.9025  142.9068  169.8109 C.3     1  UNL1        0.0465
     22 C         142.9656  143.4015  170.7463 C.3     1  UNL1        0.0069
     23 C         141.7476  136.7606  155.6002 C.3     1  UNL1        0.1747
     24 N         141.4903  135.3202  155.2695 N.pl3   1  UNL1       -0.3093
     25 H         140.7843  135.0813  154.6262 H       1  UNL1        0.1487
     26 C         142.3086  134.2438  155.9189 C.ar    1  UNL1        0.1500
     27 N         143.4542  134.4561  156.8637 N.ar    1  UNL1       -0.1544
     28 N         143.9786  133.1096  157.2662 N.ar    1  UNL1       -0.2476
     29 C         145.1235  132.8527  158.2007 C.3     1  UNL1        0.1537
     30 C         143.1571  132.0652  156.5703 C.ar    1  UNL1        0.0807
     31 C         143.2155  130.5665  156.5873 C.ar    1  UNL1        0.0188
     32 C         142.2418  129.7687  155.7715 C.ar    1  UNL1        0.0054
     33 C         141.2097  130.4697  154.9388 C.ar    1  UNL1        0.0716
     34 C         141.1513  131.9684  154.9219 C.ar    1  UNL1        0.0082
     35 C         142.1250  132.7662  155.7376 C.ar    1  UNL1        0.0503
     36 C         140.2360  129.6718  154.1231 C.3     1  UNL1        0.4186
     37 F         139.2623  128.8740  153.3074 F       1  UNL1       -0.1659
     38 F         141.2126  129.6436  152.9849 F       1  UNL1       -0.1659
     39 F         139.2594  129.7000  155.2612 F       1  UNL1       -0.1659
@<TRIPOS>BOND
     1    20    21    1
     2    21    22    1
     3    21    15    1
     4    15    16   ar
     5    16    17   ar
     6    17    18   ar
     7     9    18    1
     8     9    10    1
     9    10    11    1
    10    11    12    1
    11    12     5    1
    12     5     6    1
    13     6     7    1
    14     7     1    1
    15     1     2   am
    16     2     3    2
    17     2    23    1
    18    23    24    1
    19    24    26    1
    20    26    27   ar
    21    27    28   ar
    22    28    29    1
    23    28    30   ar
    24    30    31   ar
    25    31    32   ar
    26    32    33   ar
    27    33    36    1
    28    36    37    1
    29    36    38    1
    30    36    39    1
    31    33    34   ar
    32    34    35   ar
    33     7     8    1
    34    12    13    1
    35    13    14    1
    36    18    19   ar
    37    19    15   ar
    38    14     9    1
    39     8     5    1
    40    35    26   ar
    41    35    30   ar
    42     1     4    1
    43    24    25    1
@<TRIPOS>MOLECULE
*****
 39 43 0 0 0
SMALL
GASTEIGER

@<TRIPOS>ATOM
      1 N         143.1427  137.8060  157.1548 N.am    1  UNL1       -0.3018
      2 C         142.2028  137.4497  156.0414 C.2     1  UNL1        0.2425
      3 O         140.7320  137.3308  156.3107 O.2     1  UNL1       -0.2733
      4 H         144.1081  137.8840  156.9780 H       1  UNL1        0.1495
      5 N         141.8609  138.3793  160.4928 N.3     1  UNL1       -0.2711
      6 C         143.0392  137.6489  159.9201 C.3     1  UNL1        0.0933
      7 C         142.6117  138.0435  158.5374 C.3     1  UNL1        0.1035
      8 C         141.4334  138.7738  159.1102 C.3     1  UNL1        0.0933
      9 C         140.2679  139.0917  164.6407 C.3     1  UNL1        0.0301
     10 C         140.2908  137.7029  164.0742 C.3     1  UNL1        0.0063
     11 C         140.8217  137.4655  162.6917 C.3     1  UNL1        0.0163
     12 C         141.3299  138.6167  161.8754 C.3     1  UNL1        0.0576
     13 C         141.3070  140.0055  162.4418 C.3     1  UNL1        0.0163
     14 C         140.7760  140.2430  163.8244 C.3     1  UNL1        0.0063
     15 C         139.5367  140.0859  168.3206 C.ar    1  UNL1        0.0876
     16 N         138.3031  139.3029  167.9814 N.ar    1  UNL1       -0.2415
     17 C         138.4268  138.8351  166.5616 C.ar    1  UNL1        0.1012
     18 C         139.7369  139.3290  166.0233 C.ar    1  UNL1        0.0271
     19 S         140.4229  140.1021  167.1105 S.2     1  UNL1       -0.0751
     20 C         140.0014  139.8986  170.8700 C.3     1  UNL1        0.0069
     21 C         139.8323  140.7383  169.6387 C.3     1  UNL1        0.0465
     22 C         139.9588  142.2304  169.7252 C.3     1  UNL1        0.0069
     23 C         142.7338  137.2122  154.6588 C.3     1  UNL1        0.1747
     24 N         142.7461  135.8250  154.0881 N.pl3   1  UNL1       -0.3093
     25 H         142.5671  135.6852  153.1301 H       1  UNL1        0.1487
     26 C         143.0311  134.6508  154.9770 C.ar    1  UNL1        0.1500
     27 N         143.9931  134.6291  156.1277 N.ar    1  UNL1       -0.1544
     28 N         143.9607  133.2570  156.7330 N.ar    1  UNL1       -0.2476
     29 C         144.7684  132.7927  157.9086 C.3     1  UNL1        0.1537
     30 C         142.9787  132.4308  155.9565 C.ar    1  UNL1        0.0807
     31 C         142.5334  131.0054  156.0974 C.ar    1  UNL1        0.0188
     32 C         141.5136  130.4414  155.1530 C.ar    1  UNL1        0.0054
     33 C         140.9391  131.3028  154.0677 C.ar    1  UNL1        0.0716
     34 C         141.3844  132.7282  153.9268 C.ar    1  UNL1        0.0082
     35 C         142.4041  133.2922  154.8711 C.ar    1  UNL1        0.0503
     36 C         139.9193  130.7387  153.1233 C.3     1  UNL1        0.4186
     37 F         138.8995  130.1747  152.1789 F       1  UNL1       -0.1659
     38 F         140.0315  129.4043  153.7990 F       1  UNL1       -0.1659
     39 F         139.8070  132.0731  152.4475 F       1  UNL1       -0.1659
@<TRIPOS>BOND
     1    20    21    1
     2    21    22    1
     3    21    15    1
     4    15    16   ar
     5    16    17   ar
     6    17    18   ar
     7     9    18    1
     8     9    10    1
     9    10    11    1
    10    11    12    1
    11    12     5    1
    12     5     6    1
    13     6     7    1
    14     7     1    1
    15     1     2   am
    16     2     3    2
    17     2    23    1
    18    23    24    1
    19    24    26    1
    20    26    27   ar
    21    27    28   ar
    22    28    29    1
    23    28    30   ar
    24    30    31   ar
    25    31    32   ar
    26    32    33   ar
    27    33    36    1
    28    36    37    1
    29    36    38    1
    30    36    39    1
    31    33    34   ar
    32    34    35   ar
    33     7     8    1
    34    12    13    1
    35    13    14    1
    36    18    19   ar
    37    19    15   ar
    38    14     9    1
    39     8     5    1
    40    35    26   ar
    41    35    30   ar
    42     1     4    1
    43    24    25    1
@<TRIPOS>MOLECULE
*****
 39 43 0 0 0
SMALL
GASTEIGER

@<TRIPOS>ATOM
      1 N         140.9404  138.2074  156.8202 N.am    1  UNL1       -0.3018
      2 C         142.1098  137.7481  156.0008 C.2     1  UNL1        0.2425
      3 O         143.4246  137.4629  156.6641 O.2     1  UNL1       -0.2733
      4 H         140.0775  138.3946  156.3849 H       1  UNL1        0.1495
      5 N         141.2914  138.6275  160.4000 N.3     1  UNL1       -0.2711
      6 C         140.1372  138.6116  159.4420 C.3     1  UNL1        0.0933
      7 C         141.0858  138.3814  158.3030 C.3     1  UNL1        0.1035
      8 C         142.2399  138.3973  159.2610 C.3     1  UNL1        0.0933
      9 C         141.7276  139.1495  164.8483 C.3     1  UNL1        0.0301
     10 C         141.4606  137.7892  164.2753 C.3     1  UNL1        0.0063
     11 C         141.3151  137.6152  162.7926 C.3     1  UNL1        0.0163
     12 C         141.4368  138.8015  161.8827 C.3     1  UNL1        0.0576
     13 C         141.7038  140.1618  162.4556 C.3     1  UNL1        0.0163
     14 C         141.8492  140.3358  163.9384 C.3     1  UNL1        0.0063
     15 C         141.4127  139.8973  168.6439 C.ar    1  UNL1        0.0876
     16 N         142.7805  139.2848  168.5817 N.ar    1  UNL1       -0.2415
     17 C         143.0650  138.9301  167.1523 C.ar    1  UNL1        0.1012
     18 C         141.8730  139.3234  166.3310 C.ar    1  UNL1        0.0271
     19 S         140.8518  139.9211  167.2529 S.2     1  UNL1       -0.0751
     20 C         139.2284  140.4597  169.9335 C.3     1  UNL1        0.0069
     21 C         140.7262  140.3980  169.8801 C.3     1  UNL1        0.0465
     22 C         141.5375  140.8371  171.0628 C.3     1  UNL1        0.0069
     23 C         141.9644  137.5741  154.5181 C.3     1  UNL1        0.1747
     24 N         142.7878  136.5468  153.7991 N.pl3   1  UNL1       -0.3093
     25 H         143.6440  136.8032  153.3862 H       1  UNL1        0.1487
     26 C         142.3067  135.1289  153.7094 C.ar    1  UNL1        0.1500
     27 N         141.3036  134.5986  152.7282 N.ar    1  UNL1       -0.1544
     28 N         141.1212  133.1343  152.9975 N.ar    1  UNL1       -0.2476
     29 C         140.2087  132.2074  152.2504 C.3     1  UNL1        0.1537
     30 C         142.0116  132.7596  154.1451 C.ar    1  UNL1        0.0807
     31 C         142.2498  131.4551  154.8462 C.ar    1  UNL1        0.0188
     32 C         143.2206  131.3834  155.9873 C.ar    1  UNL1        0.0054
     33 C         143.9533  132.6162  156.4273 C.ar    1  UNL1        0.0716
     34 C         143.7151  133.9206  155.7261 C.ar    1  UNL1        0.0082
     35 C         142.7442  133.9923  154.5850 C.ar    1  UNL1        0.0503
     36 C         144.9242  132.5444  157.5685 C.3     1  UNL1        0.4186
     37 F         145.8951  132.4727  158.7097 F       1  UNL1       -0.1659
     38 F         145.5482  131.3232  156.9609 F       1  UNL1       -0.1659
     39 F         144.3002  133.7656  158.1761 F       1  UNL1       -0.1659
@<TRIPOS>BOND
     1    20    21    1
     2    21    22    1
     3    21    15    1
     4    15    16   ar
     5    16    17   ar
     6    17    18   ar
     7     9    18    1
     8     9    10    1
     9    10    11    1
    10    11    12    1
    11    12     5    1
    12     5     6    1
    13     6     7    1
    14     7     1    1
    15     1     2   am
    16     2     3    2
    17     2    23    1
    18    23    24    1
    19    24    26    1
    20    26    27   ar
    21    27    28   ar
    22    28    29    1
    23    28    30   ar
    24    30    31   ar
    25    31    32   ar
    26    32    33   ar
    27    33    36    1
    28    36    37    1
    29    36    38    1
    30    36    39    1
    31    33    34   ar
    32    34    35   ar
    33     7     8    1
    34    12    13    1
    35    13    14    1
    36    18    19   ar
    37    19    15   ar
    38    14     9    1
    39     8     5    1
    40    35    26   ar
    41    35    30   ar
    42     1     4    1
    43    24    25    1
@<TRIPOS>MOLECULE
*****
 39 43 0 0 0
SMALL
GASTEIGER

@<TRIPOS>ATOM
      1 N         140.1207  140.2618  163.0705 N.am    1  UNL1       -0.3018
      2 C         139.9380  138.8915  163.6525 C.2     1  UNL1        0.2425
      3 O         140.6952  137.7281  163.0839 O.2     1  UNL1       -0.2733
      4 H         139.6237  141.0254  163.4436 H       1  UNL1        0.1495
      5 N         142.3896  140.7614  160.2926 N.3     1  UNL1       -0.2711
      6 C         140.9111  140.9135  160.4950 C.3     1  UNL1        0.0933
      7 C         141.0605  140.4688  161.9199 C.3     1  UNL1        0.1035
      8 C         142.5389  140.3167  161.7173 C.3     1  UNL1        0.0933
      9 C         145.2091  141.3822  156.8408 C.3     1  UNL1        0.0301
     10 C         144.3684  140.1417  156.9089 C.3     1  UNL1        0.0063
     11 C         143.4286  139.9348  158.0594 C.3     1  UNL1        0.0163
     12 C         143.3295  140.9683  159.1420 C.3     1  UNL1        0.0576
     13 C         144.1701  142.2088  159.0740 C.3     1  UNL1        0.0163
     14 C         145.1100  142.4157  157.9234 C.3     1  UNL1        0.0063
     15 C         148.1456  142.0779  154.3998 C.ar    1  UNL1        0.0876
     16 N         147.0450  141.7366  153.4394 N.ar    1  UNL1       -0.2415
     17 C         145.8111  141.4344  154.2369 C.ar    1  UNL1        0.1012
     18 C         146.1489  141.5890  155.6902 C.ar    1  UNL1        0.0271
     19 S         147.5918  141.9867  155.7908 S.2     1  UNL1       -0.0751
     20 C         150.7061  141.7898  154.7332 C.3     1  UNL1        0.0069
     21 C         149.5529  142.4459  154.0334 C.3     1  UNL1        0.0465
     22 C         149.8069  143.4701  152.9674 C.3     1  UNL1        0.0069
     23 C         138.9982  138.6846  164.8031 C.3     1  UNL1        0.1747
     24 N         138.6275  139.8395  165.6857 N.pl3   1  UNL1       -0.3093
     25 H         137.8702  140.4203  165.4443 H       1  UNL1        0.1487
     26 C         139.4107  140.1092  166.9363 C.ar    1  UNL1        0.1500
     27 N         139.0544  139.6445  168.3172 N.ar    1  UNL1       -0.1544
     28 N         140.1112  140.1392  169.2598 N.ar    1  UNL1       -0.2476
     29 C         140.1515  139.9046  170.7408 C.3     1  UNL1        0.1537
     30 C         141.1206  140.9097  168.4614 C.ar    1  UNL1        0.0807
     31 C         142.3780  141.6257  168.8565 C.ar    1  UNL1        0.0188
     32 C         143.2025  142.3233  167.8156 C.ar    1  UNL1        0.0054
     33 C         142.7695  142.3048  166.3795 C.ar    1  UNL1        0.0716
     34 C         141.5121  141.5887  165.9844 C.ar    1  UNL1        0.0082
     35 C         140.6876  140.8912  167.0254 C.ar    1  UNL1        0.0503
     36 C         143.5941  143.0024  165.3385 C.3     1  UNL1        0.4186
     37 F         144.4185  143.6999  164.2976 F       1  UNL1       -0.1659
     38 F         144.5551  143.4500  166.3996 F       1  UNL1       -0.1659
     39 F         142.6330  142.5548  164.2774 F       1  UNL1       -0.1659
@<TRIPOS>BOND
     1    20    21    1
     2    21    22    1
     3    21    15    1
     4    15    16   ar
     5    16    17   ar
     6    17    18   ar
     7     9    18    1
     8     9    10    1
     9    10    11    1
    10    11    12    1
    11    12     5    1
    12     5     6    1
    13     6     7    1
    14     7     1    1
    15     1     2   am
    16     2     3    2
    17     2    23    1
    18    23    24    1
    19    24    26    1
    20    26    27   ar
    21    27    28   ar
    22    28    29    1
    23    28    30   ar
    24    30    31   ar
    25    31    32   ar
    26    32    33   ar
    27    33    36    1
    28    36    37    1
    29    36    38    1
    30    36    39    1
    31    33    34   ar
    32    34    35   ar
    33     7     8    1
    34    12    13    1
    35    13    14    1
    36    18    19   ar
    37    19    15   ar
    38    14     9    1
    39     8     5    1
    40    35    26   ar
    41    35    30   ar
    42     1     4    1
    43    24    25    1
@<TRIPOS>MOLECULE
*****
 39 43 0 0 0
SMALL
GASTEIGER

@<TRIPOS>ATOM
      1 N         142.9574  137.5170  157.7427 N.am    1  UNL1       -0.3018
      2 C         143.3033  138.6080  156.7731 C.2     1  UNL1        0.2425
      3 O         143.2146  140.0441  157.1970 O.2     1  UNL1       -0.2733
      4 H         143.0156  136.5745  157.4644 H       1  UNL1        0.1495
      5 N         141.9083  138.3505  161.1070 N.3     1  UNL1       -0.2711
      6 C         141.3425  138.5682  159.7350 C.3     1  UNL1        0.0933
      7 C         142.5229  137.8622  159.1362 C.3     1  UNL1        0.1035
      8 C         143.0886  137.6446  160.5083 C.3     1  UNL1        0.0933
      9 C         140.6047  139.3861  165.2877 C.3     1  UNL1        0.0301
     10 C         141.0991  140.4629  164.3677 C.3     1  UNL1        0.0063
     11 C         141.5335  140.1177  162.9743 C.3     1  UNL1        0.0163
     12 C         141.4738  138.6957  162.5006 C.3     1  UNL1        0.0576
     13 C         140.9795  137.6189  163.4205 C.3     1  UNL1        0.0163
     14 C         140.5449  137.9641  164.8141 C.3     1  UNL1        0.0063
     15 C         140.1404  140.6418  168.9309 C.ar    1  UNL1        0.0876
     16 N         138.8631  139.8840  168.7206 N.ar    1  UNL1       -0.2415
     17 C         138.8815  139.3214  167.3302 C.ar    1  UNL1        0.1012
     18 C         140.1702  139.7314  166.6812 C.ar    1  UNL1        0.0271
     19 S         140.9483  140.5475  167.6706 S.2     1  UNL1       -0.0751
     20 C         141.7777  140.9570  170.9235 C.3     1  UNL1        0.0069
     21 C         140.5398  141.3666  170.1820 C.3     1  UNL1        0.0465
     22 C         139.7013  142.5012  170.6915 C.3     1  UNL1        0.0069
     23 C         143.7378  138.2628  155.3795 C.3     1  UNL1        0.1747
     24 N         144.2335  136.8815  155.0689 N.pl3   1  UNL1       -0.3093
     25 H         145.1874  136.6644  155.1794 H       1  UNL1        0.1487
     26 C         143.2758  135.8310  154.5900 C.ar    1  UNL1        0.1500
     27 N         142.2349  136.0068  153.5244 N.ar    1  UNL1       -0.1544
     28 N         141.5067  134.7048  153.3685 N.ar    1  UNL1       -0.2476
     29 C         140.3846  134.4312  152.4114 C.3     1  UNL1        0.1537
     30 C         142.0976  133.7242  154.3377 C.ar    1  UNL1        0.0807
     31 C         141.7814  132.2874  154.6302 C.ar    1  UNL1        0.0188
     32 C         142.5585  131.5467  155.6778 C.ar    1  UNL1        0.0054
     33 C         143.6519  132.2428  156.4327 C.ar    1  UNL1        0.0716
     34 C         143.9682  133.6795  156.1401 C.ar    1  UNL1        0.0082
     35 C         143.1910  134.4202  155.0926 C.ar    1  UNL1        0.0503
     36 C         144.4291  131.5020  157.4803 C.3     1  UNL1        0.4186
     37 F         145.2062  130.7612  158.5278 F       1  UNL1       -0.1659
     38 F         144.6511  132.7858  158.2235 F       1  UNL1       -0.1659
     39 F         144.2070  130.2181  156.7371 F       1  UNL1       -0.1659
@<TRIPOS>BOND
     1    20    21    1
     2    21    22    1
     3    21    15    1
     4    15    16   ar
     5    16    17   ar
     6    17    18   ar
     7     9    18    1
     8     9    10    1
     9    10    11    1
    10    11    12    1
    11    12     5    1
    12     5     6    1
    13     6     7    1
    14     7     1    1
    15     1     2   am
    16     2     3    2
    17     2    23    1
    18    23    24    1
    19    24    26    1
    20    26    27   ar
    21    27    28   ar
    22    28    29    1
    23    28    30   ar
    24    30    31   ar
    25    31    32   ar
    26    32    33   ar
    27    33    36    1
    28    36    37    1
    29    36    38    1
    30    36    39    1
    31    33    34   ar
    32    34    35   ar
    33     7     8    1
    34    12    13    1
    35    13    14    1
    36    18    19   ar
    37    19    15   ar
    38    14     9    1
    39     8     5    1
    40    35    26   ar
    41    35    30   ar
    42     1     4    1
    43    24    25    1
@<TRIPOS>MOLECULE
*****
 39 43 0 0 0
SMALL
GASTEIGER

@<TRIPOS>ATOM
      1 N         138.0479  141.0035  165.1681 N.am    1  UNL1       -0.3018
      2 C         138.1942  139.5194  165.3290 C.2     1  UNL1        0.2425
      3 O         138.7029  138.6879  164.1890 O.2     1  UNL1       -0.2733
      4 H         137.7140  141.5493  165.9164 H       1  UNL1        0.1495
      5 N         138.9230  142.5790  162.0271 N.3     1  UNL1       -0.2711
      6 C         139.6785  141.8308  163.0851 C.3     1  UNL1        0.0933
      7 C         138.4103  141.6561  163.8671 C.3     1  UNL1        0.1035
      8 C         137.6549  142.4044  162.8091 C.3     1  UNL1        0.0933
      9 C         140.0103  144.5368  158.1239 C.3     1  UNL1        0.0301
     10 C         139.2264  143.2579  158.1288 C.3     1  UNL1        0.0063
     11 C         138.8640  142.6054  159.4298 C.3     1  UNL1        0.0163
     12 C         139.2854  143.2316  160.7260 C.3     1  UNL1        0.0576
     13 C         140.0693  144.5105  160.7212 C.3     1  UNL1        0.0163
     14 C         140.4318  145.1631  159.4201 C.3     1  UNL1        0.0063
     15 C         140.4750  146.7674  154.9817 C.ar    1  UNL1        0.0876
     16 N         141.3854  145.6196  154.6595 N.ar    1  UNL1       -0.2415
     17 C         141.3221  144.6443  155.7973 C.ar    1  UNL1        0.1012
     18 C         140.3727  145.1893  156.8228 C.ar    1  UNL1        0.0271
     19 S         139.8491  146.5015  156.3186 S.2     1  UNL1       -0.0751
     20 C         140.7790  148.0132  152.7220 C.3     1  UNL1        0.0069
     21 C         140.2330  147.9701  154.1184 C.3     1  UNL1        0.0465
     22 C         139.4450  149.1297  154.6518 C.3     1  UNL1        0.0069
     23 C         137.8317  138.8668  166.6301 C.3     1  UNL1        0.1747
     24 N         138.8075  138.8724  167.7694 N.pl3   1  UNL1       -0.3093
     25 H         138.8520  138.1039  168.3832 H       1  UNL1        0.1487
     26 C         139.7155  140.0488  167.9735 C.ar    1  UNL1        0.1500
     27 N         139.5373  141.1335  168.9941 N.ar    1  UNL1       -0.1544
     28 N         140.6728  142.1020  168.8441 N.ar    1  UNL1       -0.2476
     29 C         140.8902  143.3395  169.6635 C.3     1  UNL1        0.1537
     30 C         141.5529  141.6159  167.7308 C.ar    1  UNL1        0.0807
     31 C         142.8164  142.1648  167.1376 C.ar    1  UNL1        0.0188
     32 C         143.4884  141.4447  166.0063 C.ar    1  UNL1        0.0054
     33 C         142.8967  140.1757  165.4682 C.ar    1  UNL1        0.0716
     34 C         141.6331  139.6267  166.0615 C.ar    1  UNL1        0.0082
     35 C         140.9612  140.3469  167.1928 C.ar    1  UNL1        0.0503
     36 C         143.5687  139.4555  164.3369 C.3     1  UNL1        0.4186
     37 F         144.2407  138.7355  163.2056 F       1  UNL1       -0.1659
     38 F         142.2848  138.7448  164.0266 F       1  UNL1       -0.1659
     39 F         144.8526  140.1663  164.6472 F       1  UNL1       -0.1659
@<TRIPOS>BOND
     1    20    21    1
     2    21    22    1
     3    21    15    1
     4    15    16   ar
     5    16    17   ar
     6    17    18   ar
     7     9    18    1
     8     9    10    1
     9    10    11    1
    10    11    12    1
    11    12     5    1
    12     5     6    1
    13     6     7    1
    14     7     1    1
    15     1     2   am
    16     2     3    2
    17     2    23    1
    18    23    24    1
    19    24    26    1
    20    26    27   ar
    21    27    28   ar
    22    28    29    1
    23    28    30   ar
    24    30    31   ar
    25    31    32   ar
    26    32    33   ar
    27    33    36    1
    28    36    37    1
    29    36    38    1
    30    36    39    1
    31    33    34   ar
    32    34    35   ar
    33     7     8    1
    34    12    13    1
    35    13    14    1
    36    18    19   ar
    37    19    15   ar
    38    14     9    1
    39     8     5    1
    40    35    26   ar
    41    35    30   ar
    42     1     4    1
    43    24    25    1
@<TRIPOS>MOLECULE
*****
 39 43 0 0 0
SMALL
GASTEIGER

@<TRIPOS>ATOM
      1 N         140.8376  142.9883  157.7389 N.am    1  UNL1       -0.3018
      2 C         141.8187  143.7290  158.5983 C.2     1  UNL1        0.2425
      3 O         143.0174  143.0173  159.1522 O.2     1  UNL1       -0.2733
      4 H         140.0509  143.4554  157.3753 H       1  UNL1        0.1495
      5 N         141.3628  139.4821  157.0010 N.3     1  UNL1       -0.2711
      6 C         141.9189  140.7717  156.4742 C.3     1  UNL1        0.0933
      7 C         141.0551  141.5360  157.4333 C.3     1  UNL1        0.1035
      8 C         140.4990  140.2464  157.9600 C.3     1  UNL1        0.0933
      9 C         142.0153  135.1250  156.0843 C.3     1  UNL1        0.0301
     10 C         140.8802  135.8651  155.4408 C.3     1  UNL1        0.0063
     11 C         140.6628  137.3174  155.7464 C.3     1  UNL1        0.0163
     12 C         141.5803  138.0297  156.6955 C.3     1  UNL1        0.0576
     13 C         142.7153  137.2897  157.3390 C.3     1  UNL1        0.0163
     14 C         142.9328  135.8373  157.0334 C.3     1  UNL1        0.0063
     15 C         143.0345  131.3847  155.8927 C.ar    1  UNL1        0.0876
     16 N         142.1001  131.4907  154.7241 N.ar    1  UNL1       -0.2415
     17 C         141.6045  132.9047  154.6536 C.ar    1  UNL1        0.1012
     18 C         142.2327  133.6727  155.7787 C.ar    1  UNL1        0.0271
     19 S         143.1165  132.7332  156.5445 S.2     1  UNL1       -0.0751
     20 C         143.4365  129.5188  157.6554 C.3     1  UNL1        0.0069
     21 C         143.7598  130.1475  156.3324 C.3     1  UNL1        0.0465
     22 C         144.8083  129.5389  155.4491 C.3     1  UNL1        0.0069
     23 C         141.6012  145.1813  158.9039 C.3     1  UNL1        0.1747
     24 N         141.4468  145.6336  160.3258 N.pl3   1  UNL1       -0.3093
     25 H         141.8406  146.4880  160.6161 H       1  UNL1        0.1487
     26 C         140.6923  144.7843  161.3053 C.ar    1  UNL1        0.1500
     27 N         139.2783  144.3074  161.1528 N.ar    1  UNL1       -0.1544
     28 N         138.9315  143.4911  162.3625 N.ar    1  UNL1       -0.2476
     29 C         137.6161  142.8201  162.6259 C.3     1  UNL1        0.1537
     30 C         140.1312  143.4634  163.2626 C.ar    1  UNL1        0.0807
     31 C         140.3732  142.8137  164.5927 C.ar    1  UNL1        0.0188
     32 C         141.7034  142.9633  165.2694 C.ar    1  UNL1        0.0054
     33 C         142.7917  143.7626  164.6160 C.ar    1  UNL1        0.0716
     34 C         142.5496  144.4123  163.2859 C.ar    1  UNL1        0.0082
     35 C         141.2194  144.2627  162.6092 C.ar    1  UNL1        0.0503
     36 C         144.1220  143.9121  165.2928 C.3     1  UNL1        0.4186
     37 F         145.4522  144.0617  165.9696 F       1  UNL1       -0.1659
     38 F         143.9817  142.5360  165.8729 F       1  UNL1       -0.1659
     39 F         144.2623  145.2883  164.7128 F       1  UNL1       -0.1659
@<TRIPOS>BOND
     1    20    21    1
     2    21    22    1
     3    21    15    1
     4    15    16   ar
     5    16    17   ar
     6    17    18   ar
     7     9    18    1
     8     9    10    1
     9    10    11    1
    10    11    12    1
    11    12     5    1
    12     5     6    1
    13     6     7    1
    14     7     1    1
    15     1     2   am
    16     2     3    2
    17     2    23    1
    18    23    24    1
    19    24    26    1
    20    26    27   ar
    21    27    28   ar
    22    28    29    1
    23    28    30   ar
    24    30    31   ar
    25    31    32   ar
    26    32    33   ar
    27    33    36    1
    28    36    37    1
    29    36    38    1
    30    36    39    1
    31    33    34   ar
    32    34    35   ar
    33     7     8    1
    34    12    13    1
    35    13    14    1
    36    18    19   ar
    37    19    15   ar
    38    14     9    1
    39     8     5    1
    40    35    26   ar
    41    35    30   ar
    42     1     4    1
    43    24    25    1
