@<TRIPOS>MOLECULE
*****
 36 39 0 0 0
SMALL
GASTEIGER

@<TRIPOS>ATOM
      1 N         142.1623  143.1913  161.1269 N.am    1  UNL1       -0.2996
      2 C         142.3892  144.0910  162.3054 C.2     1  UNL1        0.2353
      3 O         143.5962  144.9806  162.3485 O.2     1  UNL1       -0.2737
      4 H         141.3701  142.6075  161.0986 H       1  UNL1        0.1498
      5 C         141.4091  144.1011  163.4409 C.3     1  UNL1        0.1166
      6 N         141.2284  145.4992  162.9286 N.3     1  UNL1       -0.3162
      7 C         141.9302  142.6994  163.5589 C.3     1  UNL1        0.0739
      8 C         141.4085  141.7933  164.6344 C.3     1  UNL1        0.2039
      9 N         140.3656  142.2889  165.5920 N.pl3   1  UNL1       -0.1931
     10 C         139.8445  143.6905  165.4740 C.3     1  UNL1        0.2039
     11 C         140.3663  144.5966  164.3985 C.3     1  UNL1        0.0739
     12 H         141.8459  145.6516  162.1312 H       1  UNL1        0.1192
     13 H         141.4569  146.1642  163.6675 H       1  UNL1        0.1192
     14 C         139.8438  141.3827  166.6675 C.2     1  UNL1        0.3205
     15 N         139.0638  140.1551  166.3008 N.2     1  UNL1        0.0097
     16 C         138.5420  139.2490  167.3762 C.2     1  UNL1        0.4717
     17 N         138.8003  139.5705  168.8185 N.2     1  UNL1        0.0158
     18 C         139.5804  140.7981  169.1852 C.2     1  UNL1        0.3714
     19 N         139.9894  141.3686  170.5108 N.2     1  UNL1       -0.0339
     20 C         140.7638  142.6274  170.2546 C.2     1  UNL1        0.2323
     21 C         140.8336  142.8348  168.7706 C.2     1  UNL1        0.0486
     22 C         140.1022  141.7042  168.1097 C.3     1  UNL1        0.2428
     23 C         143.1424  143.1813  159.9913 C.3     1  UNL1        0.1138
     24 C         142.7686  143.7906  158.6726 C.ar    1  UNL1       -0.0028
     25 C         141.9545  145.0497  158.6320 C.ar    1  UNL1       -0.0018
     26 C         141.5807  145.6589  157.3132 C.ar    1  UNL1        0.0111
     27 C         142.0210  145.0090  156.0350 C.ar    1  UNL1        0.0577
     28 CL        141.6473  145.6182  154.7163 Cl      1  UNL1       -0.0822
     29 C         142.8351  143.7499  156.0756 C.ar    1  UNL1        0.0111
     30 C         143.2089  143.1406  157.3944 C.ar    1  UNL1       -0.0018
     31 C         144.4962  142.5619  160.1746 C.3     1  UNL1        0.1135
     32 C         145.8545  141.6514  163.7906 C.3     1  UNL1        0.0946
     33 C         145.1503  141.5382  162.4711 C.2     1  UNL1        0.2230
     34 O         144.3960  140.2877  162.1284 O.2     1  UNL1       -0.2751
     35 N         145.2004  142.6753  161.4941 N.am    1  UNL1       -0.3024
     36 H         145.6955  143.4960  161.7190 H       1  UNL1        0.1495
@<TRIPOS>BOND
     1    32    33    1
     2    33    34    2
     3    33    35   am
     4    35    31    1
     5    31    23    1
     6    23     1    1
     7     1     2   am
     8     2     3    2
     9     2     5    1
    10     5     6    1
    11     5     7    1
    12     7     8    1
    13     8     9    1
    14     9    14    1
    15    14    15    2
    16    15    16    1
    17    16    17    2
    18    17    18    1
    19    18    19    2
    20    19    20    1
    21    20    21    2
    22    21    22    1
    23     9    10    1
    24    10    11    1
    25    23    24    1
    26    24    25   ar
    27    25    26   ar
    28    26    27   ar
    29    27    28    1
    30    27    29   ar
    31    29    30   ar
    32    11     5    1
    33    30    24   ar
    34    22    14    1
    35    22    18    1
    36    35    36    1
    37     1     4    1
    38     6    12    1
    39     6    13    1
@<TRIPOS>MOLECULE
*****
 36 39 0 0 0
SMALL
GASTEIGER

@<TRIPOS>ATOM
      1 N         142.0247  143.2661  161.0977 N.am    1  UNL1       -0.2996
      2 C         142.3157  144.1686  162.2601 C.2     1  UNL1        0.2353
      3 O         143.5469  145.0254  162.2545 O.2     1  UNL1       -0.2737
      4 H         141.2166  142.7038  161.1014 H       1  UNL1        0.1498
      5 C         141.3755  144.2140  163.4279 C.3     1  UNL1        0.1166
      6 N         141.0288  145.5135  162.7638 N.3     1  UNL1       -0.3162
      7 C         142.0487  142.8987  163.6865 C.3     1  UNL1        0.0739
      8 C         141.6613  142.0801  164.8822 C.3     1  UNL1        0.2039
      9 N         140.6006  142.5769  165.8195 N.pl3   1  UNL1       -0.1931
     10 C         139.9274  143.8921  165.5610 C.3     1  UNL1        0.2039
     11 C         140.3149  144.7107  164.3652 C.3     1  UNL1        0.0739
     12 H         141.6015  145.6316  161.9281 H       1  UNL1        0.1192
     13 H         141.2064  146.2831  163.4092 H       1  UNL1        0.1192
     14 C         140.2132  141.7583  167.0152 C.2     1  UNL1        0.3205
     15 N         140.7001  142.1468  168.3798 N.2     1  UNL1        0.0097
     16 C         140.3127  141.3282  169.5755 C.2     1  UNL1        0.4717
     17 N         139.4384  140.1210  169.4067 N.2     1  UNL1        0.0158
     18 C         138.9515  139.7325  168.0422 C.2     1  UNL1        0.3714
     19 N         138.0844  138.6034  167.5698 N.2     1  UNL1       -0.0339
     20 C         137.9359  138.7242  166.0821 C.2     1  UNL1        0.2323
     21 C         138.7112  139.9279  165.6350 C.2     1  UNL1        0.0486
     22 C         139.3389  140.5511  166.8464 C.3     1  UNL1        0.2428
     23 C         142.9649  143.2206  159.9298 C.3     1  UNL1        0.1138
     24 C         142.5874  143.8810  158.6370 C.ar    1  UNL1       -0.0028
     25 C         143.0310  143.2861  157.3334 C.ar    1  UNL1       -0.0018
     26 C         142.6534  143.9465  156.0406 C.ar    1  UNL1        0.0111
     27 C         141.8324  145.2017  156.0513 C.ar    1  UNL1        0.0577
     28 CL        141.4549  145.8621  154.7586 Cl      1  UNL1       -0.0822
     29 C         141.3888  145.7966  157.3549 C.ar    1  UNL1        0.0111
     30 C         141.7663  145.1363  158.6477 C.ar    1  UNL1       -0.0018
     31 C         144.2825  142.5148  160.0548 C.3     1  UNL1        0.1135
     32 C         145.8505  141.6479  163.5960 C.3     1  UNL1        0.0946
     33 C         145.0525  141.5282  162.3316 C.2     1  UNL1        0.2230
     34 O         144.2262  140.3019  162.0795 O.2     1  UNL1       -0.2751
     35 N         145.0806  142.6346  161.3192 N.am    1  UNL1       -0.3024
     36 H         145.6229  143.4395  161.4847 H       1  UNL1        0.1495
@<TRIPOS>BOND
     1    32    33    1
     2    33    34    2
     3    33    35   am
     4    35    31    1
     5    31    23    1
     6    23     1    1
     7     1     2   am
     8     2     3    2
     9     2     5    1
    10     5     6    1
    11     5     7    1
    12     7     8    1
    13     8     9    1
    14     9    14    1
    15    14    15    2
    16    15    16    1
    17    16    17    2
    18    17    18    1
    19    18    19    2
    20    19    20    1
    21    20    21    2
    22    21    22    1
    23     9    10    1
    24    10    11    1
    25    23    24    1
    26    24    25   ar
    27    25    26   ar
    28    26    27   ar
    29    27    28    1
    30    27    29   ar
    31    29    30   ar
    32    11     5    1
    33    30    24   ar
    34    22    14    1
    35    22    18    1
    36    35    36    1
    37     1     4    1
    38     6    12    1
    39     6    13    1
@<TRIPOS>MOLECULE
*****
 36 39 0 0 0
SMALL
GASTEIGER

@<TRIPOS>ATOM
      1 N         141.2428  142.2908  164.3795 N.am    1  UNL1       -0.2996
      2 C         140.3654  143.4929  164.5677 C.2     1  UNL1        0.2353
      3 O         139.7069  143.7409  165.8924 O.2     1  UNL1       -0.2737
      4 H         141.6750  142.1280  163.5101 H       1  UNL1        0.1498
      5 C         140.1466  144.4468  163.4310 C.3     1  UNL1        0.1166
      6 N         139.5537  145.2421  164.5561 N.3     1  UNL1       -0.3162
      7 C         140.8155  143.3203  162.7005 C.3     1  UNL1        0.0739
      8 C         141.0597  143.4238  161.2243 C.3     1  UNL1        0.2039
      9 N         140.6351  144.6540  160.4782 N.pl3   1  UNL1       -0.1931
     10 C         139.9662  145.7806  161.2086 C.3     1  UNL1        0.2039
     11 C         139.7220  145.6769  162.6850 C.3     1  UNL1        0.0739
     12 H         139.6288  144.7114  165.4240 H       1  UNL1        0.1192
     13 H         138.5714  145.4319  164.3575 H       1  UNL1        0.1192
     14 C         140.8793  144.7575  159.0019 C.2     1  UNL1        0.3205
     15 N         141.9544  145.6649  158.4813 N.2     1  UNL1        0.0097
     16 C         142.1986  145.7684  157.0051 C.2     1  UNL1        0.4717
     17 N         141.3677  144.9646  156.0492 N.2     1  UNL1        0.0158
     18 C         140.2927  144.0573  156.5697 C.2     1  UNL1        0.3714
     19 N         139.3216  143.1498  155.8744 N.2     1  UNL1       -0.0339
     20 C         138.4772  142.4853  156.9211 C.2     1  UNL1        0.2323
     21 C         138.9264  142.9822  158.2632 C.2     1  UNL1        0.0486
     22 C         140.0484  143.9538  158.0460 C.3     1  UNL1        0.2428
     23 C         141.4616  141.3368  165.5162 C.3     1  UNL1        0.1138
     24 C         140.3520  140.4290  165.9576 C.ar    1  UNL1       -0.0028
     25 C         139.7465  139.4581  164.9878 C.ar    1  UNL1       -0.0018
     26 C         138.6370  138.5504  165.4293 C.ar    1  UNL1        0.0111
     27 C         138.1329  138.6135  166.8406 C.ar    1  UNL1        0.0577
     28 CL        137.0234  137.7059  167.2821 Cl      1  UNL1       -0.0822
     29 C         138.7384  139.5844  167.8104 C.ar    1  UNL1        0.0111
     30 C         139.8480  140.4922  167.3690 C.ar    1  UNL1       -0.0018
     31 C         142.7900  141.2905  166.2114 C.3     1  UNL1        0.1135
     32 C         143.4393  142.5140  169.9304 C.3     1  UNL1        0.0946
     33 C         143.1732  141.6136  168.7606 C.2     1  UNL1        0.2230
     34 O         143.0243  140.1358  168.9703 O.2     1  UNL1       -0.2751
     35 N         143.0561  142.1910  167.3812 N.am    1  UNL1       -0.3024
     36 H         143.1538  143.1609  167.2436 H       1  UNL1        0.1495
@<TRIPOS>BOND
     1    32    33    1
     2    33    34    2
     3    33    35   am
     4    35    31    1
     5    31    23    1
     6    23     1    1
     7     1     2   am
     8     2     3    2
     9     2     5    1
    10     5     6    1
    11     5     7    1
    12     7     8    1
    13     8     9    1
    14     9    14    1
    15    14    15    2
    16    15    16    1
    17    16    17    2
    18    17    18    1
    19    18    19    2
    20    19    20    1
    21    20    21    2
    22    21    22    1
    23     9    10    1
    24    10    11    1
    25    23    24    1
    26    24    25   ar
    27    25    26   ar
    28    26    27   ar
    29    27    28    1
    30    27    29   ar
    31    29    30   ar
    32    11     5    1
    33    30    24   ar
    34    22    14    1
    35    22    18    1
    36    35    36    1
    37     1     4    1
    38     6    12    1
    39     6    13    1
@<TRIPOS>MOLECULE
*****
 36 39 0 0 0
SMALL
GASTEIGER

@<TRIPOS>ATOM
      1 N         139.1920  141.6427  159.8991 N.am    1  UNL1       -0.2996
      2 C         138.4544  141.8597  161.1870 C.2     1  UNL1        0.2353
      3 O         137.6201  143.0920  161.3751 O.2     1  UNL1       -0.2737
      4 H         139.7396  140.8339  159.7756 H       1  UNL1        0.1498
      5 C         138.5512  140.8444  162.2869 C.3     1  UNL1        0.1166
      6 N         137.2277  140.4610  161.6943 N.3     1  UNL1       -0.3162
      7 C         139.8412  141.5803  162.4975 C.3     1  UNL1        0.0739
      8 C         140.7683  141.1679  163.6021 C.3     1  UNL1        0.2039
      9 N         140.4054  140.0193  164.4963 N.pl3   1  UNL1       -0.1931
     10 C         139.1155  139.2834  164.2857 C.3     1  UNL1        0.2039
     11 C         138.1884  139.6959  163.1809 C.3     1  UNL1        0.0739
     12 H         137.0142  141.0784  160.9110 H       1  UNL1        0.1192
     13 H         136.4997  140.5476  162.4036 H       1  UNL1        0.1192
     14 C         141.3325  139.6068  165.6009 C.2     1  UNL1        0.3205
     15 N         142.5965  138.8650  165.2815 N.2     1  UNL1        0.0097
     16 C         143.5236  138.4525  166.3861 C.2     1  UNL1        0.4717
     17 N         143.1868  138.7819  167.8103 N.2     1  UNL1        0.0158
     18 C         141.9228  139.5237  168.1297 C.2     1  UNL1        0.3714
     19 N         141.3304  139.9844  169.4284 N.2     1  UNL1       -0.0339
     20 C         140.0371  140.6817  169.1264 C.2     1  UNL1        0.2323
     21 C         139.8302  140.6519  167.6411 C.2     1  UNL1        0.0486
     22 C         140.9957  139.9362  167.0250 C.3     1  UNL1        0.2428
     23 C         139.0953  142.6580  158.7992 C.3     1  UNL1        0.1138
     24 C         138.1676  142.4258  157.6435 C.ar    1  UNL1       -0.0028
     25 C         138.0662  143.4440  156.5467 C.ar    1  UNL1       -0.0018
     26 C         137.1385  143.2116  155.3912 C.ar    1  UNL1        0.0111
     27 C         136.3121  141.9612  155.3324 C.ar    1  UNL1        0.0577
     28 CL        135.3844  141.7289  154.1769 Cl      1  UNL1       -0.0822
     29 C         136.4135  140.9430  156.4292 C.ar    1  UNL1        0.0111
     30 C         137.3412  141.1753  157.5848 C.ar    1  UNL1       -0.0018
     31 C         139.9263  143.9056  158.8549 C.3     1  UNL1        0.1135
     32 C         140.1821  146.1895  162.0904 C.3     1  UNL1        0.0946
     33 C         140.4908  145.1273  161.0772 C.2     1  UNL1        0.2230
     34 O         141.6727  144.2247  161.2732 O.2     1  UNL1       -0.2751
     35 N         139.6176  144.9678  159.8680 N.am    1  UNL1       -0.3024
     36 H         138.8419  145.5601  159.7394 H       1  UNL1        0.1495
@<TRIPOS>BOND
     1    32    33    1
     2    33    34    2
     3    33    35   am
     4    35    31    1
     5    31    23    1
     6    23     1    1
     7     1     2   am
     8     2     3    2
     9     2     5    1
    10     5     6    1
    11     5     7    1
    12     7     8    1
    13     8     9    1
    14     9    14    1
    15    14    15    2
    16    15    16    1
    17    16    17    2
    18    17    18    1
    19    18    19    2
    20    19    20    1
    21    20    21    2
    22    21    22    1
    23     9    10    1
    24    10    11    1
    25    23    24    1
    26    24    25   ar
    27    25    26   ar
    28    26    27   ar
    29    27    28    1
    30    27    29   ar
    31    29    30   ar
    32    11     5    1
    33    30    24   ar
    34    22    14    1
    35    22    18    1
    36    35    36    1
    37     1     4    1
    38     6    12    1
    39     6    13    1
@<TRIPOS>MOLECULE
*****
 36 39 0 0 0
SMALL
GASTEIGER

@<TRIPOS>ATOM
      1 N         140.2133  142.5607  161.3165 N.am    1  UNL1       -0.2996
      2 C         139.0787  142.8596  162.2510 C.2     1  UNL1        0.2353
      3 O         138.1346  143.9853  161.9486 O.2     1  UNL1       -0.2737
      4 H         140.8330  141.8219  161.5150 H       1  UNL1        0.1498
      5 C         138.8881  142.0326  163.4878 C.3     1  UNL1        0.1166
      6 N         137.6120  141.7181  162.7652 N.3     1  UNL1       -0.3162
      7 C         140.2306  142.6344  163.7810 C.3     1  UNL1        0.0739
      8 C         140.9392  142.3000  165.0600 C.3     1  UNL1        0.2039
      9 N         140.3055  141.3638  166.0460 N.pl3   1  UNL1       -0.1931
     10 C         138.9631  140.7620  165.7529 C.3     1  UNL1        0.2039
     11 C         138.2545  141.0965  164.4738 C.3     1  UNL1        0.0739
     12 H         137.5909  142.2206  161.8779 H       1  UNL1        0.1192
     13 H         136.8177  142.0048  163.3373 H       1  UNL1        0.1192
     14 C         141.0142  141.0294  167.3250 C.2     1  UNL1        0.3205
     15 N         141.7772  139.7436  167.4456 N.2     1  UNL1        0.0097
     16 C         142.4859  139.4092  168.7246 C.2     1  UNL1        0.4717
     17 N         142.4316  140.3606  169.8831 N.2     1  UNL1        0.0158
     18 C         141.6686  141.6464  169.7624 C.2     1  UNL1        0.3714
     19 N         141.4389  142.7715  170.7275 N.2     1  UNL1       -0.0339
     20 C         140.5882  143.8012  170.0450 C.2     1  UNL1        0.2323
     21 C         140.2921  143.3125  168.6580 C.2     1  UNL1        0.0486
     22 C         140.9599  141.9808  168.4834 C.3     1  UNL1        0.2428
     23 C         140.4039  143.3876  160.0796 C.3     1  UNL1        0.1138
     24 C         139.5530  143.1354  158.8704 C.ar    1  UNL1       -0.0028
     25 C         138.5878  141.9873  158.8587 C.ar    1  UNL1       -0.0018
     26 C         137.7369  141.7351  157.6494 C.ar    1  UNL1        0.0111
     27 C         137.8511  142.6310  156.4518 C.ar    1  UNL1        0.0577
     28 CL        137.0003  142.3789  155.2426 Cl      1  UNL1       -0.0822
     29 C         138.8163  143.7791  156.4635 C.ar    1  UNL1        0.0111
     30 C         139.6673  144.0314  157.6727 C.ar    1  UNL1       -0.0018
     31 C         141.4454  144.4667  160.0520 C.3     1  UNL1        0.1135
     32 C         143.3200  145.0490  163.5012 C.3     1  UNL1        0.0946
     33 C         142.8725  144.4057  162.2222 C.2     1  UNL1        0.2230
     34 O         143.4045  143.0579  161.8344 O.2     1  UNL1       -0.2751
     35 N         141.8929  145.1101  161.3310 N.am    1  UNL1       -0.3024
     36 H         141.5437  145.9947  161.5856 H       1  UNL1        0.1495
@<TRIPOS>BOND
     1    32    33    1
     2    33    34    2
     3    33    35   am
     4    35    31    1
     5    31    23    1
     6    23     1    1
     7     1     2   am
     8     2     3    2
     9     2     5    1
    10     5     6    1
    11     5     7    1
    12     7     8    1
    13     8     9    1
    14     9    14    1
    15    14    15    2
    16    15    16    1
    17    16    17    2
    18    17    18    1
    19    18    19    2
    20    19    20    1
    21    20    21    2
    22    21    22    1
    23     9    10    1
    24    10    11    1
    25    23    24    1
    26    24    25   ar
    27    25    26   ar
    28    26    27   ar
    29    27    28    1
    30    27    29   ar
    31    29    30   ar
    32    11     5    1
    33    30    24   ar
    34    22    14    1
    35    22    18    1
    36    35    36    1
    37     1     4    1
    38     6    12    1
    39     6    13    1
@<TRIPOS>MOLECULE
*****
 36 39 0 0 0
SMALL
GASTEIGER

@<TRIPOS>ATOM
      1 N         142.6565  140.9018  161.9186 N.am    1  UNL1       -0.2996
      2 C         143.8480  140.7084  162.8091 C.2     1  UNL1        0.2353
      3 O         145.2086  141.1364  162.3450 O.2     1  UNL1       -0.2737
      4 H         141.7635  140.6209  162.2232 H       1  UNL1        0.1498
      5 C         143.6787  140.0868  164.1637 C.3     1  UNL1        0.1166
      6 N         144.7125  139.1681  163.5830 N.3     1  UNL1       -0.3162
      7 C         142.7037  141.2214  164.2739 C.3     1  UNL1        0.0739
      8 C         141.9184  141.4154  165.5371 C.3     1  UNL1        0.2039
      9 N         142.1081  140.4748  166.6901 N.pl3   1  UNL1       -0.1931
     10 C         143.0831  139.3402  166.5799 C.3     1  UNL1        0.2039
     11 C         143.8684  139.1463  165.3167 C.3     1  UNL1        0.0739
     12 H         144.9402  139.4684  162.6352 H       1  UNL1        0.1192
     13 H         144.3467  138.2163  163.5596 H       1  UNL1        0.1192
     14 C         141.3227  140.6688  167.9533 C.2     1  UNL1        0.3205
     15 N         139.9937  139.9939  168.1213 N.2     1  UNL1        0.0097
     16 C         139.2084  140.1879  169.3844 C.2     1  UNL1        0.4717
     17 N         139.7521  141.0568  170.4797 N.2     1  UNL1        0.0158
     18 C         141.0811  141.7317  170.3117 C.2     1  UNL1        0.3714
     19 N         141.8667  142.6393  171.2112 N.2     1  UNL1       -0.0339
     20 C         143.1375  143.0062  170.5039 C.2     1  UNL1        0.2323
     21 C         143.1374  142.3254  169.1673 C.2     1  UNL1        0.0486
     22 C         141.8664  141.5376  169.0485 C.3     1  UNL1        0.2428
     23 C         142.8258  141.5234  160.5639 C.3     1  UNL1        0.1138
     24 C         143.0103  140.6523  159.3568 C.ar    1  UNL1       -0.0028
     25 C         143.8493  141.1295  158.2086 C.ar    1  UNL1       -0.0018
     26 C         144.0338  140.2583  157.0016 C.ar    1  UNL1        0.0111
     27 C         143.3794  138.9099  156.9426 C.ar    1  UNL1        0.0577
     28 CL        143.5638  138.0388  155.7356 Cl      1  UNL1       -0.0822
     29 C         142.5404  138.4327  158.0908 C.ar    1  UNL1        0.0111
     30 C         142.3558  139.3038  159.2979 C.ar    1  UNL1       -0.0018
     31 C         142.8104  143.0160  160.4164 C.3     1  UNL1        0.1135
     32 C         142.1718  145.4109  163.5159 C.3     1  UNL1        0.0946
     33 C         142.8819  144.5642  162.5016 C.2     1  UNL1        0.2230
     34 O         144.3738  144.4191  162.5581 O.2     1  UNL1       -0.2751
     35 N         142.1002  143.8627  161.4307 N.am    1  UNL1       -0.3024
     36 H         141.1210  143.9579  161.3936 H       1  UNL1        0.1495
@<TRIPOS>BOND
     1    32    33    1
     2    33    34    2
     3    33    35   am
     4    35    31    1
     5    31    23    1
     6    23     1    1
     7     1     2   am
     8     2     3    2
     9     2     5    1
    10     5     6    1
    11     5     7    1
    12     7     8    1
    13     8     9    1
    14     9    14    1
    15    14    15    2
    16    15    16    1
    17    16    17    2
    18    17    18    1
    19    18    19    2
    20    19    20    1
    21    20    21    2
    22    21    22    1
    23     9    10    1
    24    10    11    1
    25    23    24    1
    26    24    25   ar
    27    25    26   ar
    28    26    27   ar
    29    27    28    1
    30    27    29   ar
    31    29    30   ar
    32    11     5    1
    33    30    24   ar
    34    22    14    1
    35    22    18    1
    36    35    36    1
    37     1     4    1
    38     6    12    1
    39     6    13    1
@<TRIPOS>MOLECULE
*****
 36 39 0 0 0
SMALL
GASTEIGER

@<TRIPOS>ATOM
      1 N         142.3088  144.1424  161.8391 N.am    1  UNL1       -0.2996
      2 C         142.1244  142.9475  162.7270 C.2     1  UNL1        0.2353
      3 O         141.2716  141.8002  162.2730 O.2     1  UNL1       -0.2737
      4 H         142.8686  144.8954  162.1371 H       1  UNL1        0.1498
      5 C         142.7929  142.9002  164.0690 C.3     1  UNL1        0.1166
      6 N         143.7887  143.7271  163.3111 N.3     1  UNL1       -0.3162
      7 C         141.5649  142.0896  164.3609 C.3     1  UNL1        0.0739
      8 C         141.3513  141.5189  165.7314 C.3     1  UNL1        0.2039
      9 N         142.3656  141.7587  166.8103 N.pl3   1  UNL1       -0.1931
     10 C         143.5936  142.5692  166.5184 C.3     1  UNL1        0.2039
     11 C         143.8072  143.1399  165.1477 C.3     1  UNL1        0.0739
     12 H         143.4667  143.8520  162.3513 H       1  UNL1        0.1192
     13 H         144.6919  143.2532  163.3078 H       1  UNL1        0.1192
     14 C         142.1519  141.1879  168.1809 C.2     1  UNL1        0.3205
     15 N         142.7563  139.8642  168.5447 N.2     1  UNL1        0.0097
     16 C         142.5427  139.2934  169.9152 C.2     1  UNL1        0.4717
     17 N         141.7245  140.0464  170.9221 N.2     1  UNL1        0.0158
     18 C         141.1202  141.3702  170.5583 C.2     1  UNL1        0.3714
     19 N         140.2731  142.3341  171.3350 N.2     1  UNL1       -0.0339
     20 C         139.9632  143.5006  170.4444 C.2     1  UNL1        0.2323
     21 C         140.6188  143.2577  169.1173 C.2     1  UNL1        0.0486
     22 C         141.3338  141.9409  169.1877 C.3     1  UNL1        0.2428
     23 C         141.6404  144.1898  160.4971 C.3     1  UNL1        0.1138
     24 C         142.3722  143.7136  159.2774 C.ar    1  UNL1       -0.0028
     25 C         143.6157  142.8876  159.4237 C.ar    1  UNL1       -0.0018
     26 C         144.3475  142.4114  158.2040 C.ar    1  UNL1        0.0111
     27 C         143.8358  142.7610  156.8381 C.ar    1  UNL1        0.0577
     28 CL        144.5676  142.2848  155.6184 Cl      1  UNL1       -0.0822
     29 C         142.5923  143.5870  156.6918 C.ar    1  UNL1        0.0111
     30 C         141.8605  144.0633  157.9115 C.ar    1  UNL1       -0.0018
     31 C         140.2401  144.7136  160.3748 C.3     1  UNL1        0.1135
     32 C         137.6748  143.6264  163.2010 C.3     1  UNL1        0.0946
     33 C         138.8019  144.3292  162.5041 C.2     1  UNL1        0.2230
     34 O         139.6180  145.3504  163.2396 O.2     1  UNL1       -0.2751
     35 N         139.1129  144.0107  161.0717 N.am    1  UNL1       -0.3024
     36 H         138.5773  143.3404  160.5889 H       1  UNL1        0.1495
@<TRIPOS>BOND
     1    32    33    1
     2    33    34    2
     3    33    35   am
     4    35    31    1
     5    31    23    1
     6    23     1    1
     7     1     2   am
     8     2     3    2
     9     2     5    1
    10     5     6    1
    11     5     7    1
    12     7     8    1
    13     8     9    1
    14     9    14    1
    15    14    15    2
    16    15    16    1
    17    16    17    2
    18    17    18    1
    19    18    19    2
    20    19    20    1
    21    20    21    2
    22    21    22    1
    23     9    10    1
    24    10    11    1
    25    23    24    1
    26    24    25   ar
    27    25    26   ar
    28    26    27   ar
    29    27    28    1
    30    27    29   ar
    31    29    30   ar
    32    11     5    1
    33    30    24   ar
    34    22    14    1
    35    22    18    1
    36    35    36    1
    37     1     4    1
    38     6    12    1
    39     6    13    1
@<TRIPOS>MOLECULE
*****
 36 39 0 0 0
SMALL
GASTEIGER

@<TRIPOS>ATOM
      1 N         139.7491  141.9771  163.7364 N.am    1  UNL1       -0.2996
      2 C         138.4894  141.5543  163.0404 C.2     1  UNL1        0.2353
      3 O         137.1543  141.8973  163.6320 O.2     1  UNL1       -0.2737
      4 H         140.6253  141.7520  163.3482 H       1  UNL1        0.1498
      5 C         138.5648  140.7884  161.7529 C.3     1  UNL1        0.1166
      6 N         137.0897  140.7136  162.0142 N.3     1  UNL1       -0.3162
      7 C         140.0138  141.1291  161.9387 C.3     1  UNL1        0.0739
      8 C         141.0259  140.6780  160.9278 C.3     1  UNL1        0.2039
      9 N         140.5892  139.8862  159.7310 N.pl3   1  UNL1       -0.1931
     10 C         139.1403  139.5454  159.5451 C.3     1  UNL1        0.2039
     11 C         138.1281  139.9966  160.5562 C.3     1  UNL1        0.0739
     12 H         136.8729  141.2037  162.8821 H       1  UNL1        0.1192
     13 H         136.8080  139.7367  162.0959 H       1  UNL1        0.1192
     14 C         141.6014  139.4351  158.7200 C.2     1  UNL1        0.3205
     15 N         141.8021  137.9713  158.4613 N.2     1  UNL1        0.0097
     16 C         142.8142  137.5202  157.4505 C.2     1  UNL1        0.4717
     17 N         143.6257  138.5329  156.6981 N.2     1  UNL1        0.0158
     18 C         143.4250  139.9967  156.9568 C.2     1  UNL1        0.3714
     19 N         144.0731  141.2172  156.3733 N.2     1  UNL1       -0.0339
     20 C         143.4615  142.4225  157.0237 C.2     1  UNL1        0.2323
     21 C         142.4354  141.9471  158.0091 C.2     1  UNL1        0.0486
     22 C         142.4128  140.4478  157.9677 C.3     1  UNL1        0.2428
     23 C         139.6737  142.7430  165.0240 C.3     1  UNL1        0.1138
     24 C         139.8724  142.0342  166.3310 C.ar    1  UNL1       -0.0028
     25 C         139.4657  140.5976  166.4745 C.ar    1  UNL1       -0.0018
     26 C         139.6645  139.8889  167.7815 C.ar    1  UNL1        0.0111
     27 C         140.2699  140.6167  168.9449 C.ar    1  UNL1        0.0577
     28 CL        140.4687  139.9081  170.2519 Cl      1  UNL1       -0.0822
     29 C         140.6767  142.0534  168.8014 C.ar    1  UNL1        0.0111
     30 C         140.4779  142.7621  167.4944 C.ar    1  UNL1       -0.0018
     31 C         139.3996  144.2176  165.0045 C.3     1  UNL1        0.1135
     32 C         139.8219  146.2700  161.6342 C.3     1  UNL1        0.0946
     33 C         139.2168  145.4087  162.7028 C.2     1  UNL1        0.2230
     34 O         137.8238  144.8772  162.5384 O.2     1  UNL1       -0.2751
     35 N         140.0047  145.0789  163.9359 N.am    1  UNL1       -0.3024
     36 H         140.9190  145.4277  164.0438 H       1  UNL1        0.1495
@<TRIPOS>BOND
     1    32    33    1
     2    33    34    2
     3    33    35   am
     4    35    31    1
     5    31    23    1
     6    23     1    1
     7     1     2   am
     8     2     3    2
     9     2     5    1
    10     5     6    1
    11     5     7    1
    12     7     8    1
    13     8     9    1
    14     9    14    1
    15    14    15    2
    16    15    16    1
    17    16    17    2
    18    17    18    1
    19    18    19    2
    20    19    20    1
    21    20    21    2
    22    21    22    1
    23     9    10    1
    24    10    11    1
    25    23    24    1
    26    24    25   ar
    27    25    26   ar
    28    26    27   ar
    29    27    28    1
    30    27    29   ar
    31    29    30   ar
    32    11     5    1
    33    30    24   ar
    34    22    14    1
    35    22    18    1
    36    35    36    1
    37     1     4    1
    38     6    12    1
    39     6    13    1
@<TRIPOS>MOLECULE
*****
 36 39 0 0 0
SMALL
GASTEIGER

@<TRIPOS>ATOM
      1 N         139.9679  141.8951  164.0900 N.am    1  UNL1       -0.2996
      2 C         139.3569  140.5554  164.3763 C.2     1  UNL1        0.2353
      3 O         138.8144  140.2549  165.7421 O.2     1  UNL1       -0.2737
      4 H         140.3240  142.0924  163.1936 H       1  UNL1        0.1498
      5 C         139.2884  139.5164  163.2967 C.3     1  UNL1        0.1166
      6 N         138.4281  138.8659  164.3390 N.3     1  UNL1       -0.3162
      7 C         140.1726  140.5277  162.6292 C.3     1  UNL1        0.0739
      8 C         140.6895  140.2741  161.2441 C.3     1  UNL1        0.2039
      9 N         140.3222  139.0091  160.5264 N.pl3   1  UNL1       -0.1931
     10 C         139.4381  137.9978  161.1938 C.3     1  UNL1        0.2039
     11 C         138.9212  138.2514  162.5790 C.3     1  UNL1        0.0739
     12 H         138.3749  139.4684  165.1603 H       1  UNL1        0.1192
     13 H         138.8332  137.9675  164.6020 H       1  UNL1        0.1192
     14 C         140.8391  138.7556  159.1413 C.2     1  UNL1        0.3205
     15 N         142.1079  137.9800  158.9446 N.2     1  UNL1        0.0097
     16 C         142.6248  137.7264  157.5596 C.2     1  UNL1        0.4717
     17 N         141.8730  138.2484  156.3711 N.2     1  UNL1        0.0158
     18 C         140.6042  139.0240  156.5678 C.2     1  UNL1        0.3714
     19 N         139.6545  139.6581  155.5953 N.2     1  UNL1       -0.0339
     20 C         138.5506  140.3035  156.3793 C.2     1  UNL1        0.2323
     21 C         138.8180  140.0684  157.8364 C.2     1  UNL1        0.0486
     22 C         140.0873  139.2775  157.9529 C.3     1  UNL1        0.2428
     23 C         140.0365  142.9343  165.1697 C.3     1  UNL1        0.1138
     24 C         140.9505  142.7379  166.3427 C.ar    1  UNL1       -0.0028
     25 C         140.4114  142.8383  167.7388 C.ar    1  UNL1       -0.0018
     26 C         141.3255  142.6420  168.9117 C.ar    1  UNL1        0.0111
     27 C         142.7788  142.3452  168.6886 C.ar    1  UNL1        0.0577
     28 CL        143.6929  142.1488  169.8614 Cl      1  UNL1       -0.0822
     29 C         143.3180  142.2447  167.2925 C.ar    1  UNL1        0.0111
     30 C         142.4039  142.4411  166.1195 C.ar    1  UNL1       -0.0018
     31 C         139.1909  144.1697  165.0763 C.3     1  UNL1        0.1135
     32 C         139.6276  146.3127  161.7646 C.3     1  UNL1        0.0946
     33 C         139.2330  145.2022  162.6925 C.2     1  UNL1        0.2230
     34 O         138.4856  144.0136  162.1646 O.2     1  UNL1       -0.2751
     35 N         139.5856  145.2803  164.1484 N.am    1  UNL1       -0.3024
     36 H         140.0761  146.0604  164.4949 H       1  UNL1        0.1495
@<TRIPOS>BOND
     1    32    33    1
     2    33    34    2
     3    33    35   am
     4    35    31    1
     5    31    23    1
     6    23     1    1
     7     1     2   am
     8     2     3    2
     9     2     5    1
    10     5     6    1
    11     5     7    1
    12     7     8    1
    13     8     9    1
    14     9    14    1
    15    14    15    2
    16    15    16    1
    17    16    17    2
    18    17    18    1
    19    18    19    2
    20    19    20    1
    21    20    21    2
    22    21    22    1
    23     9    10    1
    24    10    11    1
    25    23    24    1
    26    24    25   ar
    27    25    26   ar
    28    26    27   ar
    29    27    28    1
    30    27    29   ar
    31    29    30   ar
    32    11     5    1
    33    30    24   ar
    34    22    14    1
    35    22    18    1
    36    35    36    1
    37     1     4    1
    38     6    12    1
    39     6    13    1
