@<TRIPOS>MOLECULE
*****
 33 37 0 0 0
SMALL
GASTEIGER

@<TRIPOS>ATOM
      1 C         138.5057  139.3877  164.4457 C.ar    1  UNL1        0.1564
      2 C         138.9619  137.9799  164.2011 C.ar    1  UNL1        0.0385
      3 C         139.3539  137.5479  162.8192 C.ar    1  UNL1        0.0033
      4 C         139.2898  138.5238  161.6819 C.ar    1  UNL1        0.0048
      5 C         138.8336  139.9316  161.9265 C.ar    1  UNL1        0.0567
      6 C         138.4416  140.3636  163.3084 C.ar    1  UNL1        0.1209
      7 N         137.9854  141.7715  163.5530 N.ar    1  UNL1       -0.2108
      8 C         137.9213  142.7474  162.4157 C.ar    1  UNL1        0.2163
      9 N         137.4652  144.1553  162.6603 N.pl3   1  UNL1       -0.3274
     10 N         138.3133  142.3154  161.0338 N.ar    1  UNL1       -0.1813
     11 N         138.3524  143.0491  159.7260 N.ar    1  UNL1       -0.1451
     12 C         138.8327  142.0947  158.6732 C.ar    1  UNL1        0.1769
     13 N         139.0905  140.7711  159.3303 N.ar    1  UNL1       -0.2086
     14 C         138.7695  140.9076  160.7891 C.ar    1  UNL1        0.1695
     15 H         137.2079  144.4388  163.5673 H       1  UNL1        0.1452
     16 H         137.4231  144.7958  161.9138 H       1  UNL1        0.1452
     17 C         137.8239  138.7917  166.8808 C.3     1  UNL1        0.2525
     18 O         138.1137  139.8197  165.8276 O.3     1  UNL1       -0.4699
     19 C         139.0221  142.4087  157.2187 C.3     1  UNL1        0.1408
     20 N         139.0493  143.8356  156.7569 N.3     1  UNL1       -0.2644
     21 C         140.0432  144.7946  157.3423 C.3     1  UNL1        0.0942
     22 C         140.0704  146.2215  156.8804 C.3     1  UNL1        0.1095
     23 N         139.1037  146.6894  155.8332 N.pl3   1  UNL1       -0.2904
     24 C         138.1099  145.7304  155.2478 C.3     1  UNL1        0.1081
     25 C         138.0827  144.3035  155.7097 C.3     1  UNL1        0.0778
     26 C         137.0889  143.3446  155.1243 C.3     1  UNL1        0.0192
     27 C         139.1309  148.1162  155.3713 C.ar    1  UNL1        0.1319
     28 C         139.7859  148.4707  154.0692 C.ar    1  UNL1        0.0366
     29 C         139.8131  149.8976  153.6074 C.ar    1  UNL1        0.0341
     30 C         139.1853  150.9700  154.4476 C.ar    1  UNL1        0.1593
     31 F         139.2126  152.3968  153.9858 F       1  UNL1       -0.2025
     32 C         138.5304  150.6155  155.7497 C.ar    1  UNL1        0.1298
     33 N         138.5032  149.1886  156.2115 N.ar    1  UNL1       -0.2268
@<TRIPOS>BOND
     1    17    18    1
     2    18     1    1
     3     1     2   ar
     4     2     3   ar
     5     3     4   ar
     6     4     5   ar
     7     5     6   ar
     8     6     7   ar
     9     7     8   ar
    10     8     9    1
    11     8    10   ar
    12    10    11   ar
    13    11    12   ar
    14    12    19    1
    15    19    20    1
    16    20    21    1
    17    21    22    1
    18    22    23    1
    19    23    27    1
    20    27    28   ar
    21    28    29   ar
    22    29    30   ar
    23    30    31    1
    24    30    32   ar
    25    32    33   ar
    26    23    24    1
    27    24    25    1
    28    25    26    1
    29    12    13   ar
    30    13    14   ar
    31     6     1   ar
    32    14    10   ar
    33    14     5   ar
    34    25    20    1
    35    33    27   ar
    36     9    15    1
    37     9    16    1
@<TRIPOS>MOLECULE
*****
 33 37 0 0 0
SMALL
GASTEIGER

@<TRIPOS>ATOM
      1 C         143.8462  131.6321  155.3377 C.ar    1  UNL1        0.1564
      2 C         144.7770  131.1383  156.4052 C.ar    1  UNL1        0.0385
      3 C         145.0914  132.0071  157.5868 C.ar    1  UNL1        0.0033
      4 C         144.4750  133.3698  157.7009 C.ar    1  UNL1        0.0048
      5 C         143.5442  133.8637  156.6333 C.ar    1  UNL1        0.0567
      6 C         143.2298  132.9948  155.4517 C.ar    1  UNL1        0.1209
      7 N         142.2990  133.4887  154.3841 N.ar    1  UNL1       -0.2108
      8 C         141.6826  134.8514  154.4982 C.ar    1  UNL1        0.2163
      9 N         140.7517  135.3453  153.4306 N.pl3   1  UNL1       -0.3274
     10 N         141.9969  135.7203  155.6798 N.ar    1  UNL1       -0.1813
     11 N         141.5435  137.0982  156.0614 N.ar    1  UNL1       -0.1451
     12 C         142.1940  137.4560  157.3648 C.ar    1  UNL1        0.1769
     13 N         143.0496  136.2991  157.7887 N.ar    1  UNL1       -0.2086
     14 C         142.9277  135.2264  156.7474 C.ar    1  UNL1        0.1695
     15 H         140.5454  134.7750  152.6551 H       1  UNL1        0.1452
     16 H         140.3471  136.2397  153.5055 H       1  UNL1        0.1452
     17 C         144.4751  129.6665  153.7595 C.3     1  UNL1        0.2525
     18 O         143.5318  130.7632  154.1560 O.3     1  UNL1       -0.4699
     19 C         142.0196  138.7444  158.1129 C.3     1  UNL1        0.1408
     20 N         141.3664  138.7451  159.4631 N.3     1  UNL1       -0.2644
     21 C         139.8713  138.6930  159.5730 C.3     1  UNL1        0.0942
     22 C         139.2180  138.6937  160.9233 C.3     1  UNL1        0.1095
     23 N         140.0599  138.7466  162.1637 N.pl3   1  UNL1       -0.2904
     24 C         141.5549  138.7987  162.0538 C.3     1  UNL1        0.1081
     25 C         142.2082  138.7980  160.7035 C.3     1  UNL1        0.0778
     26 C         143.7032  138.8501  160.5936 C.3     1  UNL1        0.0192
     27 C         139.4066  138.7473  163.5140 C.ar    1  UNL1        0.1319
     28 C         139.2282  137.4591  164.2615 C.ar    1  UNL1        0.0366
     29 C         138.5749  137.4598  165.6118 C.ar    1  UNL1        0.0341
     30 C         138.1001  138.7488  166.2145 C.ar    1  UNL1        0.1593
     31 F         137.4468  138.7495  167.5648 F       1  UNL1       -0.2025
     32 C         138.2786  140.0369  165.4670 C.ar    1  UNL1        0.1298
     33 N         138.9318  140.0362  164.1167 N.ar    1  UNL1       -0.2268
@<TRIPOS>BOND
     1    17    18    1
     2    18     1    1
     3     1     2   ar
     4     2     3   ar
     5     3     4   ar
     6     4     5   ar
     7     5     6   ar
     8     6     7   ar
     9     7     8   ar
    10     8     9    1
    11     8    10   ar
    12    10    11   ar
    13    11    12   ar
    14    12    19    1
    15    19    20    1
    16    20    21    1
    17    21    22    1
    18    22    23    1
    19    23    27    1
    20    27    28   ar
    21    28    29   ar
    22    29    30   ar
    23    30    31    1
    24    30    32   ar
    25    32    33   ar
    26    23    24    1
    27    24    25    1
    28    25    26    1
    29    12    13   ar
    30    13    14   ar
    31     6     1   ar
    32    14    10   ar
    33    14     5   ar
    34    25    20    1
    35    33    27   ar
    36     9    15    1
    37     9    16    1
@<TRIPOS>MOLECULE
*****
 33 37 0 0 0
SMALL
GASTEIGER

@<TRIPOS>ATOM
      1 C         142.9036  132.0061  153.4940 C.ar    1  UNL1        0.1564
      2 C         142.1516  132.3645  152.2466 C.ar    1  UNL1        0.0385
      3 C         141.4701  133.6964  152.1383 C.ar    1  UNL1        0.0033
      4 C         141.5405  134.6698  153.2773 C.ar    1  UNL1        0.0048
      5 C         142.2925  134.3113  154.5247 C.ar    1  UNL1        0.0567
      6 C         142.9740  132.9795  154.6330 C.ar    1  UNL1        0.1209
      7 N         143.7260  132.6211  155.8805 N.ar    1  UNL1       -0.2108
      8 C         143.7964  133.5945  157.0196 C.ar    1  UNL1        0.2163
      9 N         144.5484  133.2360  158.2671 N.pl3   1  UNL1       -0.3274
     10 N         143.1149  134.9263  156.9112 N.ar    1  UNL1       -0.1813
     11 N         143.0117  136.0813  157.8627 N.ar    1  UNL1       -0.1451
     12 C         142.1960  137.1536  157.2033 C.ar    1  UNL1        0.1769
     13 N         141.7950  136.6613  155.8443 N.ar    1  UNL1       -0.2086
     14 C         142.3629  135.2847  155.6639 C.ar    1  UNL1        0.1695
     15 H         144.9957  132.3619  158.3382 H       1  UNL1        0.1452
     16 H         144.5946  133.8749  159.0147 H       1  UNL1        0.1452
     17 C         143.5940  129.7388  152.4299 C.3     1  UNL1        0.2525
     18 O         143.5851  130.6743  153.6023 O.3     1  UNL1       -0.4699
     19 C         141.8431  138.4846  157.7984 C.3     1  UNL1        0.1408
     20 N         141.2318  138.5561  159.1663 N.3     1  UNL1       -0.2644
     21 C         139.7572  138.3436  159.3408 C.3     1  UNL1        0.0942
     22 C         139.1458  138.4152  160.7087 C.3     1  UNL1        0.1095
     23 N         140.0091  138.6993  161.9021 N.pl3   1  UNL1       -0.2904
     24 C         141.4836  138.9117  161.7276 C.3     1  UNL1        0.1081
     25 C         142.0950  138.8402  160.3597 C.3     1  UNL1        0.0778
     26 C         143.5695  139.0526  160.1851 C.3     1  UNL1        0.0192
     27 C         139.3977  138.7708  163.2700 C.ar    1  UNL1        0.1319
     28 C         139.3470  137.5455  164.1338 C.ar    1  UNL1        0.0366
     29 C         138.7356  137.6171  165.5017 C.ar    1  UNL1        0.0341
     30 C         138.1750  138.9140  166.0058 C.ar    1  UNL1        0.1593
     31 F         137.5637  138.9855  167.3737 F       1  UNL1       -0.2025
     32 C         138.2258  140.1392  165.1419 C.ar    1  UNL1        0.1298
     33 N         138.8372  140.0676  163.7740 N.ar    1  UNL1       -0.2268
@<TRIPOS>BOND
     1    17    18    1
     2    18     1    1
     3     1     2   ar
     4     2     3   ar
     5     3     4   ar
     6     4     5   ar
     7     5     6   ar
     8     6     7   ar
     9     7     8   ar
    10     8     9    1
    11     8    10   ar
    12    10    11   ar
    13    11    12   ar
    14    12    19    1
    15    19    20    1
    16    20    21    1
    17    21    22    1
    18    22    23    1
    19    23    27    1
    20    27    28   ar
    21    28    29   ar
    22    29    30   ar
    23    30    31    1
    24    30    32   ar
    25    32    33   ar
    26    23    24    1
    27    24    25    1
    28    25    26    1
    29    12    13   ar
    30    13    14   ar
    31     6     1   ar
    32    14    10   ar
    33    14     5   ar
    34    25    20    1
    35    33    27   ar
    36     9    15    1
    37     9    16    1
@<TRIPOS>MOLECULE
*****
 33 37 0 0 0
SMALL
GASTEIGER

@<TRIPOS>ATOM
      1 C         138.6878  144.2473  162.6810 C.ar    1  UNL1        0.1564
      2 C         139.4431  145.4817  162.2863 C.ar    1  UNL1        0.0385
      3 C         140.1446  145.5403  160.9618 C.ar    1  UNL1        0.0033
      4 C         140.0907  144.3647  160.0318 C.ar    1  UNL1        0.0048
      5 C         139.3354  143.1303  160.4265 C.ar    1  UNL1        0.0567
      6 C         138.6340  143.0716  161.7511 C.ar    1  UNL1        0.1209
      7 N         137.8787  141.8371  162.1457 N.ar    1  UNL1       -0.2108
      8 C         137.8248  140.6614  161.2158 C.ar    1  UNL1        0.2163
      9 N         137.0695  139.4270  161.6104 N.pl3   1  UNL1       -0.3274
     10 N         138.5263  140.7201  159.8912 N.ar    1  UNL1       -0.1813
     11 N         138.6485  139.7253  158.7752 N.ar    1  UNL1       -0.1451
     12 C         139.4793  140.3449  157.6909 C.ar    1  UNL1        0.1769
     13 N         139.8706  141.7226  158.1367 N.ar    1  UNL1       -0.2086
     14 C         139.2816  141.9545  159.4965 C.ar    1  UNL1        0.1695
     15 H         136.6091  139.3884  162.4798 H       1  UNL1        0.1452
     16 H         137.0342  138.6553  161.0001 H       1  UNL1        0.1452
     17 C         138.6825  144.6676  165.2448 C.3     1  UNL1        0.2525
     18 O         137.9863  144.1886  164.0056 O.3     1  UNL1       -0.4699
     19 C         139.8533  139.7000  156.3892 C.3     1  UNL1        0.1408
     20 N         140.6102  138.4050  156.3840 N.3     1  UNL1       -0.2644
     21 C         141.8405  138.2520  157.2284 C.3     1  UNL1        0.0942
     22 C         142.5975  136.9570  157.2232 C.3     1  UNL1        0.1095
     23 N         142.1242  135.8150  156.3735 N.pl3   1  UNL1       -0.2904
     24 C         140.8939  135.9680  155.5292 C.3     1  UNL1        0.1081
     25 C         140.1370  137.2630  155.5344 C.3     1  UNL1        0.0778
     26 C         138.9067  137.4160  154.6900 C.3     1  UNL1        0.0192
     27 C         142.8811  134.5200  156.3683 C.ar    1  UNL1        0.1319
     28 C         142.8229  133.6221  155.1682 C.ar    1  UNL1        0.0366
     29 C         143.5798  132.3271  155.1630 C.ar    1  UNL1        0.0341
     30 C         144.3951  131.9301  156.3579 C.ar    1  UNL1        0.1593
     31 F         145.1520  130.6351  156.3527 F       1  UNL1       -0.2025
     32 C         144.4533  132.8280  157.5580 C.ar    1  UNL1        0.1298
     33 N         143.6963  134.1230  157.5632 N.ar    1  UNL1       -0.2268
@<TRIPOS>BOND
     1    17    18    1
     2    18     1    1
     3     1     2   ar
     4     2     3   ar
     5     3     4   ar
     6     4     5   ar
     7     5     6   ar
     8     6     7   ar
     9     7     8   ar
    10     8     9    1
    11     8    10   ar
    12    10    11   ar
    13    11    12   ar
    14    12    19    1
    15    19    20    1
    16    20    21    1
    17    21    22    1
    18    22    23    1
    19    23    27    1
    20    27    28   ar
    21    28    29   ar
    22    29    30   ar
    23    30    31    1
    24    30    32   ar
    25    32    33   ar
    26    23    24    1
    27    24    25    1
    28    25    26    1
    29    12    13   ar
    30    13    14   ar
    31     6     1   ar
    32    14    10   ar
    33    14     5   ar
    34    25    20    1
    35    33    27   ar
    36     9    15    1
    37     9    16    1
@<TRIPOS>MOLECULE
*****
 33 37 0 0 0
SMALL
GASTEIGER

@<TRIPOS>ATOM
      1 C         136.9685  141.1101  156.0808 C.ar    1  UNL1        0.1564
      2 C         137.2632  142.1575  155.0483 C.ar    1  UNL1        0.0385
      3 C         138.0428  143.3826  155.4240 C.ar    1  UNL1        0.0033
      4 C         138.5277  143.5605  156.8323 C.ar    1  UNL1        0.0048
      5 C         138.2329  142.5132  157.8648 C.ar    1  UNL1        0.0567
      6 C         137.4533  141.2880  157.4891 C.ar    1  UNL1        0.1209
      7 N         137.1586  140.2406  158.5217 N.ar    1  UNL1       -0.2108
      8 C         137.6434  140.4185  159.9300 C.ar    1  UNL1        0.2163
      9 N         137.3487  139.3711  160.9626 N.pl3   1  UNL1       -0.3274
     10 N         138.4230  141.6436  160.3057 N.ar    1  UNL1       -0.1813
     11 N         139.0262  142.0904  161.6044 N.ar    1  UNL1       -0.1451
     12 C         139.6938  143.4138  161.3744 C.ar    1  UNL1        0.1769
     13 N         139.5031  143.7850  159.9336 N.ar    1  UNL1       -0.2086
     14 C         138.7178  142.6910  159.2732 C.ar    1  UNL1        0.1695
     15 H         136.8370  138.5670  160.7160 H       1  UNL1        0.1452
     16 H         137.6669  139.4878  161.8869 H       1  UNL1        0.1452
     17 C         134.9260  140.0153  154.9063 C.3     1  UNL1        0.2525
     18 O         136.1889  139.8849  155.7051 O.3     1  UNL1       -0.4699
     19 C         140.4238  144.2239  162.4045 C.3     1  UNL1        0.1408
     20 N         140.8510  143.5879  163.6940 N.3     1  UNL1       -0.2644
     21 C         142.1855  142.9095  163.7898 C.3     1  UNL1        0.0942
     22 C         142.6127  142.2735  165.0793 C.3     1  UNL1        0.1095
     23 N         141.7055  142.3160  166.2732 N.pl3   1  UNL1       -0.2904
     24 C         140.3711  142.9944  166.1774 C.3     1  UNL1        0.1081
     25 C         139.9439  143.6304  164.8879 C.3     1  UNL1        0.0778
     26 C         138.6096  144.3088  164.7921 C.3     1  UNL1        0.0192
     27 C         142.1327  141.6800  167.5628 C.ar    1  UNL1        0.1319
     28 C         143.0708  142.4049  168.4818 C.ar    1  UNL1        0.0366
     29 C         143.4980  141.7689  169.7714 C.ar    1  UNL1        0.0341
     30 C         142.9871  140.4081  170.1420 C.ar    1  UNL1        0.1593
     31 F         143.4143  139.7721  171.4315 F       1  UNL1       -0.2025
     32 C         142.0490  139.6833  169.2229 C.ar    1  UNL1        0.1298
     33 N         141.6218  140.3193  167.9334 N.ar    1  UNL1       -0.2268
@<TRIPOS>BOND
     1    17    18    1
     2    18     1    1
     3     1     2   ar
     4     2     3   ar
     5     3     4   ar
     6     4     5   ar
     7     5     6   ar
     8     6     7   ar
     9     7     8   ar
    10     8     9    1
    11     8    10   ar
    12    10    11   ar
    13    11    12   ar
    14    12    19    1
    15    19    20    1
    16    20    21    1
    17    21    22    1
    18    22    23    1
    19    23    27    1
    20    27    28   ar
    21    28    29   ar
    22    29    30   ar
    23    30    31    1
    24    30    32   ar
    25    32    33   ar
    26    23    24    1
    27    24    25    1
    28    25    26    1
    29    12    13   ar
    30    13    14   ar
    31     6     1   ar
    32    14    10   ar
    33    14     5   ar
    34    25    20    1
    35    33    27   ar
    36     9    15    1
    37     9    16    1
@<TRIPOS>MOLECULE
*****
 33 37 0 0 0
SMALL
GASTEIGER

@<TRIPOS>ATOM
      1 C         139.9616  146.6470  156.2891 C.ar    1  UNL1        0.1564
      2 C         140.6854  146.2983  155.0225 C.ar    1  UNL1        0.0385
      3 C         141.8473  145.3503  155.0593 C.ar    1  UNL1        0.0033
      4 C         142.2853  144.7510  156.3626 C.ar    1  UNL1        0.0048
      5 C         141.5615  145.0997  157.6293 C.ar    1  UNL1        0.0567
      6 C         140.3996  146.0477  157.5925 C.ar    1  UNL1        0.1209
      7 N         139.6758  146.3964  158.8593 N.ar    1  UNL1       -0.2108
      8 C         140.1138  145.7971  160.1627 C.ar    1  UNL1        0.2163
      9 N         139.3900  146.1458  161.4294 N.pl3   1  UNL1       -0.3274
     10 N         141.2757  144.8490  160.1994 N.ar    1  UNL1       -0.1813
     11 N         141.9305  144.1072  161.3267 N.ar    1  UNL1       -0.1451
     12 C         143.0590  143.3000  160.7568 C.ar    1  UNL1        0.1769
     13 N         143.1016  143.5430  159.2772 N.ar    1  UNL1       -0.2086
     14 C         141.9995  144.5003  158.9328 C.ar    1  UNL1        0.1695
     15 H         138.6274  146.7680  161.4053 H       1  UNL1        0.1452
     16 H         139.6775  145.7524  162.2849 H       1  UNL1        0.1452
     17 C         138.8551  148.8159  155.3827 C.3     1  UNL1        0.2525
     18 O         138.7998  147.5951  156.2524 O.3     1  UNL1       -0.4699
     19 C         143.9827  142.4065  161.5305 C.3     1  UNL1        0.1408
     20 N         143.7383  142.1582  162.9895 N.3     1  UNL1       -0.2644
     21 C         144.2825  143.1094  164.0137 C.3     1  UNL1        0.0942
     22 C         144.0381  142.8610  165.4727 C.3     1  UNL1        0.1095
     23 N         143.2494  141.6614  165.9074 N.pl3   1  UNL1       -0.2904
     24 C         142.7052  140.7102  164.8832 C.3     1  UNL1        0.1081
     25 C         142.9496  140.9586  163.4242 C.3     1  UNL1        0.0778
     26 C         142.4054  140.0074  162.4000 C.3     1  UNL1        0.0192
     27 C         143.0050  141.4130  167.3663 C.ar    1  UNL1        0.1319
     28 C         142.4538  140.0938  167.8205 C.ar    1  UNL1        0.0366
     29 C         142.2094  139.8454  169.2795 C.ar    1  UNL1        0.0341
     30 C         142.5161  140.9162  170.2843 C.ar    1  UNL1        0.1593
     31 F         142.2717  140.6678  171.7432 F       1  UNL1       -0.2025
     32 C         143.0672  142.2352  169.8301 C.ar    1  UNL1        0.1298
     33 N         143.3117  142.4836  168.3711 N.ar    1  UNL1       -0.2268
@<TRIPOS>BOND
     1    17    18    1
     2    18     1    1
     3     1     2   ar
     4     2     3   ar
     5     3     4   ar
     6     4     5   ar
     7     5     6   ar
     8     6     7   ar
     9     7     8   ar
    10     8     9    1
    11     8    10   ar
    12    10    11   ar
    13    11    12   ar
    14    12    19    1
    15    19    20    1
    16    20    21    1
    17    21    22    1
    18    22    23    1
    19    23    27    1
    20    27    28   ar
    21    28    29   ar
    22    29    30   ar
    23    30    31    1
    24    30    32   ar
    25    32    33   ar
    26    23    24    1
    27    24    25    1
    28    25    26    1
    29    12    13   ar
    30    13    14   ar
    31     6     1   ar
    32    14    10   ar
    33    14     5   ar
    34    25    20    1
    35    33    27   ar
    36     9    15    1
    37     9    16    1
@<TRIPOS>MOLECULE
*****
 33 37 0 0 0
SMALL
GASTEIGER

@<TRIPOS>ATOM
      1 C         142.1917  129.5818  155.6724 C.ar    1  UNL1        0.1564
      2 C         140.9480  129.4309  154.8476 C.ar    1  UNL1        0.0385
      3 C         140.1736  130.6455  154.4290 C.ar    1  UNL1        0.0033
      4 C         140.6431  132.0110  154.8352 C.ar    1  UNL1        0.0048
      5 C         141.8868  132.1619  155.6600 C.ar    1  UNL1        0.0567
      6 C         142.6611  130.9473  156.0786 C.ar    1  UNL1        0.1209
      7 N         143.9049  131.0983  156.9035 N.ar    1  UNL1       -0.2108
      8 C         144.3743  132.4638  157.3097 C.ar    1  UNL1        0.2163
      9 N         145.6180  132.6148  158.1345 N.pl3   1  UNL1       -0.3274
     10 N         143.5999  133.6784  156.8911 N.ar    1  UNL1       -0.1813
     11 N         143.8169  135.1417  157.1391 N.ar    1  UNL1       -0.1451
     12 C         142.7072  135.8952  156.4676 C.ar    1  UNL1        0.1769
     13 N         141.8045  134.8975  155.8045 N.ar    1  UNL1       -0.2086
     14 C         142.3562  133.5275  156.0663 C.ar    1  UNL1        0.1695
     15 H         146.1263  131.8176  158.4093 H       1  UNL1        0.1452
     16 H         145.9261  133.5110  158.4011 H       1  UNL1        0.1452
     17 C         142.5603  127.6052  157.3177 C.3     1  UNL1        0.2525
     18 O         142.9660  128.3673  156.0911 O.3     1  UNL1       -0.4699
     19 C         142.5311  137.3849  156.4604 C.3     1  UNL1        0.1408
     20 N         142.9296  138.1929  157.6597 N.3     1  UNL1       -0.2644
     21 C         142.6689  137.6657  159.0396 C.3     1  UNL1        0.0942
     22 C         143.0674  138.4738  160.2389 C.3     1  UNL1        0.1095
     23 N         143.7266  139.8091  160.0582 N.pl3   1  UNL1       -0.2904
     24 C         143.9873  140.3362  158.6783 C.3     1  UNL1        0.1081
     25 C         143.5888  139.5281  157.4791 C.3     1  UNL1        0.0778
     26 C         143.8495  140.0552  156.0992 C.3     1  UNL1        0.0192
     27 C         144.1251  140.6172  161.2575 C.ar    1  UNL1        0.1319
     28 C         144.5063  139.9273  162.5337 C.ar    1  UNL1        0.0366
     29 C         144.9048  140.7354  163.7330 C.ar    1  UNL1        0.0341
     30 C         144.9221  142.2333  163.6560 C.ar    1  UNL1        0.1593
     31 F         145.3206  143.0414  164.8552 F       1  UNL1       -0.2025
     32 C         144.5409  142.9231  162.3797 C.ar    1  UNL1        0.1298
     33 N         144.1424  142.1151  161.1805 N.ar    1  UNL1       -0.2268
@<TRIPOS>BOND
     1    17    18    1
     2    18     1    1
     3     1     2   ar
     4     2     3   ar
     5     3     4   ar
     6     4     5   ar
     7     5     6   ar
     8     6     7   ar
     9     7     8   ar
    10     8     9    1
    11     8    10   ar
    12    10    11   ar
    13    11    12   ar
    14    12    19    1
    15    19    20    1
    16    20    21    1
    17    21    22    1
    18    22    23    1
    19    23    27    1
    20    27    28   ar
    21    28    29   ar
    22    29    30   ar
    23    30    31    1
    24    30    32   ar
    25    32    33   ar
    26    23    24    1
    27    24    25    1
    28    25    26    1
    29    12    13   ar
    30    13    14   ar
    31     6     1   ar
    32    14    10   ar
    33    14     5   ar
    34    25    20    1
    35    33    27   ar
    36     9    15    1
    37     9    16    1
@<TRIPOS>MOLECULE
*****
 33 37 0 0 0
SMALL
GASTEIGER

@<TRIPOS>ATOM
      1 C         138.5167  139.6807  169.2534 C.ar    1  UNL1        0.1564
      2 C         137.8023  138.9920  168.1286 C.ar    1  UNL1        0.0385
      3 C         138.3361  139.0887  166.7301 C.ar    1  UNL1        0.0033
      4 C         139.5845  139.8740  166.4565 C.ar    1  UNL1        0.0048
      5 C         140.2989  140.5626  167.5814 C.ar    1  UNL1        0.0567
      6 C         139.7650  140.4660  168.9798 C.ar    1  UNL1        0.1209
      7 N         140.4795  141.1547  170.1047 N.ar    1  UNL1       -0.2108
      8 C         141.7279  141.9400  169.8310 C.ar    1  UNL1        0.2163
      9 N         142.4424  142.6287  170.9559 N.pl3   1  UNL1       -0.3274
     10 N         142.2618  142.0366  168.4326 N.ar    1  UNL1       -0.1813
     11 N         143.4612  142.7337  167.8621 N.ar    1  UNL1       -0.1451
     12 C         143.4880  142.4759  166.3847 C.ar    1  UNL1        0.1769
     13 N         142.3051  141.6194  166.0421 N.ar    1  UNL1       -0.2086
     14 C         141.5473  141.3480  167.3078 C.ar    1  UNL1        0.1695
     15 H         142.0920  142.5653  171.8737 H       1  UNL1        0.1452
     16 H         143.2617  143.1441  170.7763 H       1  UNL1        0.1452
     17 C         136.6592  138.9255  170.9055 C.3     1  UNL1        0.2525
     18 O         137.9828  139.5840  170.6518 O.3     1  UNL1       -0.4699
     19 C         144.5170  142.9851  165.4193 C.3     1  UNL1        0.1408
     20 N         144.3657  142.7168  163.9512 N.3     1  UNL1       -0.2644
     21 C         144.8030  141.4003  163.3804 C.3     1  UNL1        0.0942
     22 C         144.6517  141.1321  161.9124 C.3     1  UNL1        0.1095
     23 N         144.0632  142.1803  161.0151 N.pl3   1  UNL1       -0.2904
     24 C         143.6259  143.4967  161.5860 C.3     1  UNL1        0.1081
     25 C         143.7772  143.7649  163.0540 C.3     1  UNL1        0.0778
     26 C         143.3399  145.0813  163.6248 C.3     1  UNL1        0.0192
     27 C         143.9119  141.9120  159.5471 C.ar    1  UNL1        0.1319
     28 C         143.7249  143.0531  158.5915 C.ar    1  UNL1        0.0366
     29 C         143.5736  142.7848  157.1235 C.ar    1  UNL1        0.0341
     30 C         143.6094  141.3754  156.6110 C.ar    1  UNL1        0.1593
     31 F         143.4581  141.1072  155.1430 F       1  UNL1       -0.2025
     32 C         143.7964  140.2345  157.5666 C.ar    1  UNL1        0.1298
     33 N         143.9477  140.5027  159.0346 N.ar    1  UNL1       -0.2268
@<TRIPOS>BOND
     1    17    18    1
     2    18     1    1
     3     1     2   ar
     4     2     3   ar
     5     3     4   ar
     6     4     5   ar
     7     5     6   ar
     8     6     7   ar
     9     7     8   ar
    10     8     9    1
    11     8    10   ar
    12    10    11   ar
    13    11    12   ar
    14    12    19    1
    15    19    20    1
    16    20    21    1
    17    21    22    1
    18    22    23    1
    19    23    27    1
    20    27    28   ar
    21    28    29   ar
    22    29    30   ar
    23    30    31    1
    24    30    32   ar
    25    32    33   ar
    26    23    24    1
    27    24    25    1
    28    25    26    1
    29    12    13   ar
    30    13    14   ar
    31     6     1   ar
    32    14    10   ar
    33    14     5   ar
    34    25    20    1
    35    33    27   ar
    36     9    15    1
    37     9    16    1
@<TRIPOS>MOLECULE
*****
 33 37 0 0 0
SMALL
GASTEIGER

@<TRIPOS>ATOM
      1 C         139.8717  144.7509  157.3794 C.ar    1  UNL1        0.1564
      2 C         140.8111  145.5474  158.2357 C.ar    1  UNL1        0.0385
      3 C         141.1648  145.0642  159.6110 C.ar    1  UNL1        0.0033
      4 C         140.5792  143.7845  160.1300 C.ar    1  UNL1        0.0048
      5 C         139.6398  142.9881  159.2738 C.ar    1  UNL1        0.0567
      6 C         139.2861  143.4713  157.8985 C.ar    1  UNL1        0.1209
      7 N         138.3466  142.6747  157.0422 N.ar    1  UNL1       -0.2108
      8 C         137.7610  141.3951  157.5613 C.ar    1  UNL1        0.2163
      9 N         136.8215  140.5986  156.7050 N.pl3   1  UNL1       -0.3274
     10 N         138.1147  140.9119  158.9366 N.ar    1  UNL1       -0.1813
     11 N         137.6971  139.6978  159.7121 N.ar    1  UNL1       -0.1451
     12 C         138.3783  139.7439  161.0477 C.ar    1  UNL1        0.1769
     13 N         139.2170  140.9866  161.0975 N.ar    1  UNL1       -0.2086
     14 C         139.0541  141.7084  159.7928 C.ar    1  UNL1        0.1695
     15 H         136.5894  140.9157  155.8024 H       1  UNL1        0.1452
     16 H         136.4372  139.7587  157.0457 H       1  UNL1        0.1452
     17 C         140.2478  146.4014  155.4086 C.3     1  UNL1        0.2525
     18 O         139.5180  145.2341  156.0042 O.3     1  UNL1       -0.4699
     19 C         138.2444  138.7261  162.1414 C.3     1  UNL1        0.1408
     20 N         138.8136  139.0065  163.5006 N.3     1  UNL1       -0.2644
     21 C         138.0836  139.9129  164.4471 C.3     1  UNL1        0.0942
     22 C         138.6528  140.1933  165.8063 C.3     1  UNL1        0.1095
     23 N         139.9520  139.5673  166.2190 N.pl3   1  UNL1       -0.2904
     24 C         140.6820  138.6610  165.2726 C.3     1  UNL1        0.1081
     25 C         140.1128  138.3806  163.9134 C.3     1  UNL1        0.0778
     26 C         140.8427  137.4743  162.9670 C.3     1  UNL1        0.0192
     27 C         140.5212  139.8477  167.5782 C.ar    1  UNL1        0.1319
     28 C         141.9935  140.0848  167.7404 C.ar    1  UNL1        0.0366
     29 C         142.5627  140.3652  169.0996 C.ar    1  UNL1        0.0341
     30 C         141.6596  140.4085  170.2966 C.ar    1  UNL1        0.1593
     31 F         142.2288  140.6889  171.6558 F       1  UNL1       -0.2025
     32 C         140.1874  140.1715  170.1343 C.ar    1  UNL1        0.1298
     33 N         139.6182  139.8911  168.7751 N.ar    1  UNL1       -0.2268
@<TRIPOS>BOND
     1    17    18    1
     2    18     1    1
     3     1     2   ar
     4     2     3   ar
     5     3     4   ar
     6     4     5   ar
     7     5     6   ar
     8     6     7   ar
     9     7     8   ar
    10     8     9    1
    11     8    10   ar
    12    10    11   ar
    13    11    12   ar
    14    12    19    1
    15    19    20    1
    16    20    21    1
    17    21    22    1
    18    22    23    1
    19    23    27    1
    20    27    28   ar
    21    28    29   ar
    22    29    30   ar
    23    30    31    1
    24    30    32   ar
    25    32    33   ar
    26    23    24    1
    27    24    25    1
    28    25    26    1
    29    12    13   ar
    30    13    14   ar
    31     6     1   ar
    32    14    10   ar
    33    14     5   ar
    34    25    20    1
    35    33    27   ar
    36     9    15    1
    37     9    16    1
