@<TRIPOS>MOLECULE
*****
 34 39 0 0 0
SMALL
GASTEIGER

@<TRIPOS>ATOM
      1 N         143.3704  142.7536  167.4171 N.pl3   1  UNL1       -0.3425
      2 C         143.5825  142.5043  165.9532 C.ar    1  UNL1        0.1300
      3 N         144.2665  143.5375  165.1079 N.ar    1  UNL1       -0.2094
      4 C         144.4785  143.2882  163.6440 C.ar    1  UNL1        0.2014
      5 N         144.0067  142.0057  163.0255 N.ar    1  UNL1       -0.2065
      6 C         143.3227  140.9725  163.8709 C.ar    1  UNL1        0.1482
      7 C         143.1106  141.2218  165.3347 C.ar    1  UNL1        0.0668
      8 C         142.4104  140.0273  165.9117 C.ar    1  UNL1        0.0229
      9 C         142.1897  139.0398  164.8044 C.ar    1  UNL1        0.0771
     10 N         142.7536  139.6240  163.5431 N.ar    1  UNL1       -0.3133
     11 H         143.6801  143.5953  167.8230 H       1  UNL1        0.1437
     12 H         142.9215  142.0754  167.9719 H       1  UNL1        0.1437
     13 C         142.0025  139.8513  167.3444 C.ar    1  UNL1        0.0046
     14 C         140.6527  140.3179  167.8027 C.ar    1  UNL1        0.0003
     15 C         140.2448  140.1419  169.2354 C.ar    1  UNL1        0.0031
     16 C         141.1867  139.4991  170.2098 C.ar    1  UNL1        0.0369
     17 C         142.5366  139.0324  169.7516 C.ar    1  UNL1        0.1387
     18 C         142.9445  139.2085  168.3189 C.ar    1  UNL1        0.0369
     19 O         143.4786  138.3897  170.7259 O.3     1  UNL1       -0.4728
     20 C         143.7264  136.9115  170.6657 C.3     1  UNL1        0.2346
     21 C         144.7546  136.2863  171.5613 C.3     1  UNL1        0.1588
     22 C         145.8775  137.0040  172.2499 C.3     1  UNL1        0.0360
     23 C         146.6573  135.9949  173.0396 C.3     1  UNL1        0.0347
     24 C         146.0164  134.6537  172.8392 C.3     1  UNL1        0.1423
     25 O         144.8405  134.8337  171.9255 O.3     1  UNL1       -0.3524
     26 C         142.7491  138.9737  162.1914 C.3     1  UNL1        0.0870
     27 C         141.9314  137.9027  161.5323 C.3     1  UNL1        0.0240
     28 C         142.7426  138.0541  160.2797 C.3     1  UNL1        0.0197
     29 C         143.5603  139.1252  160.9388 C.3     1  UNL1        0.0240
     30 C         142.7381  137.4039  158.9280 C.3     1  UNL1        0.0722
     31 N         142.0019  138.0457  157.7895 N.3     1  UNL1       -0.2726
     32 C         142.2570  139.2164  156.8871 C.3     1  UNL1        0.0735
     33 C         140.9609  138.9533  156.1794 C.3     1  UNL1        0.0346
     34 C         140.7058  137.7825  157.0818 C.3     1  UNL1        0.0735
@<TRIPOS>BOND
     1     1     2    1
     2     2     3   ar
     3     3     4   ar
     4     4     5   ar
     5     5     6   ar
     6     6     7   ar
     7     7     8   ar
     8     8    13    1
     9    13    14   ar
    10    14    15   ar
    11    15    16   ar
    12    16    17   ar
    13    17    19    1
    14    19    20    1
    15    21    20    1
    16    21    22    1
    17    22    23    1
    18    23    24    1
    19    24    25    1
    20    17    18   ar
    21     8     9   ar
    22     9    10   ar
    23    26    10    1
    24    26    27    1
    25    27    28    1
    26    28    30    1
    27    30    31    1
    28    31    32    1
    29    32    33    1
    30    33    34    1
    31    28    29    1
    32     7     2   ar
    33    18    13   ar
    34    29    26    1
    35    10     6   ar
    36    34    31    1
    37    25    21    1
    38     1    11    1
    39     1    12    1
@<TRIPOS>MOLECULE
*****
 34 39 0 0 0
SMALL
GASTEIGER

@<TRIPOS>ATOM
      1 N         142.8104  139.6417  167.7347 N.pl3   1  UNL1       -0.3425
      2 C         142.6903  139.6809  166.2400 C.ar    1  UNL1        0.1300
      3 N         143.6999  138.9709  165.3876 N.ar    1  UNL1       -0.2094
      4 C         143.5798  139.0101  163.8929 C.ar    1  UNL1        0.2014
      5 N         142.4501  139.7592  163.2507 N.ar    1  UNL1       -0.2065
      6 C         141.4405  140.4691  164.1030 C.ar    1  UNL1        0.1482
      7 C         141.5606  140.4300  165.5977 C.ar    1  UNL1        0.0668
      8 C         140.4230  141.2191  166.1749 C.ar    1  UNL1        0.0229
      9 C         139.5998  141.7460  165.0370 C.ar    1  UNL1        0.0771
     10 N         140.2287  141.2824  163.7566 N.ar    1  UNL1       -0.3133
     11 H         143.5519  139.1500  168.1562 H       1  UNL1        0.1437
     12 H         142.1477  140.1077  168.2941 H       1  UNL1        0.1437
     13 C         140.1556  141.4422  167.6339 C.ar    1  UNL1        0.0046
     14 C         140.4997  142.7577  168.2670 C.ar    1  UNL1        0.0003
     15 C         140.2323  142.9808  169.7260 C.ar    1  UNL1        0.0031
     16 C         139.6206  141.8883  170.5520 C.ar    1  UNL1        0.0369
     17 C         139.2764  140.5727  169.9190 C.ar    1  UNL1        0.1387
     18 C         139.5439  140.3496  168.4600 C.ar    1  UNL1        0.0369
     19 O         138.6648  139.4801  170.7449 O.3     1  UNL1       -0.4728
     20 C         137.1845  139.2427  170.6965 C.3     1  UNL1        0.2346
     21 C         136.5532  138.2504  171.6277 C.3     1  UNL1        0.1588
     22 C         135.2682  138.4394  172.3782 C.3     1  UNL1        0.0360
     23 C         135.0170  137.2008  173.1862 C.3     1  UNL1        0.0347
     24 C         136.1465  136.2464  172.9351 C.3     1  UNL1        0.1423
     25 O         137.0960  136.8951  171.9719 O.3     1  UNL1       -0.3524
     26 C         139.7328  141.5800  162.3725 C.3     1  UNL1        0.0870
     27 C         138.4119  141.4635  161.6712 C.3     1  UNL1        0.0240
     28 C         139.0314  142.0007  160.4152 C.3     1  UNL1        0.0197
     29 C         140.3523  142.1173  161.1165 C.3     1  UNL1        0.0240
     30 C         138.5356  142.2983  159.0311 C.3     1  UNL1        0.0722
     31 N         138.6223  141.2499  157.9618 N.3     1  UNL1       -0.2726
     32 C         139.4265  139.9990  157.7657 C.3     1  UNL1        0.0735
     33 C         138.7450  139.7672  156.4497 C.3     1  UNL1        0.0346
     34 C         137.9409  141.0182  156.6458 C.3     1  UNL1        0.0735
@<TRIPOS>BOND
     1     1     2    1
     2     2     3   ar
     3     3     4   ar
     4     4     5   ar
     5     5     6   ar
     6     6     7   ar
     7     7     8   ar
     8     8    13    1
     9    13    14   ar
    10    14    15   ar
    11    15    16   ar
    12    16    17   ar
    13    17    19    1
    14    19    20    1
    15    21    20    1
    16    21    22    1
    17    22    23    1
    18    23    24    1
    19    24    25    1
    20    17    18   ar
    21     8     9   ar
    22     9    10   ar
    23    26    10    1
    24    26    27    1
    25    27    28    1
    26    28    30    1
    27    30    31    1
    28    31    32    1
    29    32    33    1
    30    33    34    1
    31    28    29    1
    32     7     2   ar
    33    18    13   ar
    34    29    26    1
    35    10     6   ar
    36    34    31    1
    37    25    21    1
    38     1    11    1
    39     1    12    1
@<TRIPOS>MOLECULE
*****
 34 39 0 0 0
SMALL
GASTEIGER

@<TRIPOS>ATOM
      1 N         141.4419  143.3593  164.4253 N.pl3   1  UNL1       -0.3425
      2 C         140.8336  144.1475  163.3034 C.ar    1  UNL1        0.1300
      3 N         139.6502  145.0317  163.5635 N.ar    1  UNL1       -0.2094
      4 C         139.0418  145.8199  162.4417 C.ar    1  UNL1        0.2014
      5 N         139.6168  145.7239  161.0596 N.ar    1  UNL1       -0.2065
      6 C         140.8002  144.8397  160.7995 C.ar    1  UNL1        0.1482
      7 C         141.4086  144.0515  161.9214 C.ar    1  UNL1        0.0668
      8 C         142.5622  143.2697  161.3663 C.ar    1  UNL1        0.0229
      9 C         142.6667  143.5747  159.9013 C.ar    1  UNL1        0.0771
     10 N         141.5778  144.5450  159.5511 N.ar    1  UNL1       -0.3133
     11 H         141.0645  143.4223  165.3324 H       1  UNL1        0.1437
     12 H         142.2187  142.7790  164.2545 H       1  UNL1        0.1437
     13 C         143.4545  142.3452  162.1403 C.ar    1  UNL1        0.0046
     14 C         144.5865  142.9009  162.9525 C.ar    1  UNL1        0.0003
     15 C         145.4788  141.9764  163.7265 C.ar    1  UNL1        0.0031
     16 C         145.2391  140.4962  163.6883 C.ar    1  UNL1        0.0369
     17 C         144.1071  139.9404  162.8761 C.ar    1  UNL1        0.1387
     18 C         143.2148  140.8649  162.1021 C.ar    1  UNL1        0.0369
     19 O         143.8673  138.4603  162.8379 O.3     1  UNL1       -0.4728
     20 C         142.6473  137.9156  162.1561 C.3     1  UNL1        0.2346
     21 C         141.3551  137.8015  162.9094 C.3     1  UNL1        0.1588
     22 C         141.2082  137.7117  164.3995 C.3     1  UNL1        0.0360
     23 C         139.7454  137.6119  164.7159 C.3     1  UNL1        0.0347
     24 C         138.9881  137.6401  163.4214 C.3     1  UNL1        0.1423
     25 O         139.9830  137.7573  162.3049 O.3     1  UNL1       -0.3524
     26 C         141.3129  145.1198  158.1911 C.3     1  UNL1        0.0870
     27 C         140.1209  145.1900  157.2831 C.3     1  UNL1        0.0240
     28 C         140.9382  145.9325  156.2678 C.3     1  UNL1        0.0197
     29 C         142.1301  145.8623  157.1758 C.3     1  UNL1        0.0240
     30 C         140.6733  146.5073  154.9078 C.3     1  UNL1        0.0722
     31 N         140.0695  147.8740  154.7758 N.3     1  UNL1       -0.2726
     32 C         138.9409  148.6038  155.4420 C.3     1  UNL1        0.0735
     33 C         139.2155  149.8069  154.5892 C.3     1  UNL1        0.0346
     34 C         140.3440  149.0771  153.9230 C.3     1  UNL1        0.0735
@<TRIPOS>BOND
     1     1     2    1
     2     2     3   ar
     3     3     4   ar
     4     4     5   ar
     5     5     6   ar
     6     6     7   ar
     7     7     8   ar
     8     8    13    1
     9    13    14   ar
    10    14    15   ar
    11    15    16   ar
    12    16    17   ar
    13    17    19    1
    14    19    20    1
    15    21    20    1
    16    21    22    1
    17    22    23    1
    18    23    24    1
    19    24    25    1
    20    17    18   ar
    21     8     9   ar
    22     9    10   ar
    23    26    10    1
    24    26    27    1
    25    27    28    1
    26    28    30    1
    27    30    31    1
    28    31    32    1
    29    32    33    1
    30    33    34    1
    31    28    29    1
    32     7     2   ar
    33    18    13   ar
    34    29    26    1
    35    10     6   ar
    36    34    31    1
    37    25    21    1
    38     1    11    1
    39     1    12    1
@<TRIPOS>MOLECULE
*****
 34 39 0 0 0
SMALL
GASTEIGER

@<TRIPOS>ATOM
      1 N         141.3813  143.1232  164.6573 N.pl3   1  UNL1       -0.3425
      2 C         140.7879  143.8934  163.5151 C.ar    1  UNL1        0.1300
      3 N         139.5849  144.7606  163.7399 N.ar    1  UNL1       -0.2094
      4 C         138.9915  145.5307  162.5976 C.ar    1  UNL1        0.2014
      5 N         139.6011  145.4336  161.2306 N.ar    1  UNL1       -0.2065
      6 C         140.8041  144.5664  161.0058 C.ar    1  UNL1        0.1482
      7 C         141.3976  143.7963  162.1480 C.ar    1  UNL1        0.0668
      8 C         142.5763  143.0288  161.6269 C.ar    1  UNL1        0.0229
      9 C         142.7114  143.3246  160.1626 C.ar    1  UNL1        0.0771
     10 N         141.6161  144.2749  159.7787 N.ar    1  UNL1       -0.3133
     11 H         140.9812  143.1870  165.5546 H       1  UNL1        0.1437
     12 H         142.1710  142.5540  164.5098 H       1  UNL1        0.1437
     13 C         143.4641  142.1243  162.4293 C.ar    1  UNL1        0.0046
     14 C         144.8344  142.5825  162.8317 C.ar    1  UNL1        0.0003
     15 C         145.7222  141.6781  163.6341 C.ar    1  UNL1        0.0031
     16 C         145.2396  140.3153  164.0340 C.ar    1  UNL1        0.0369
     17 C         143.8692  139.8570  163.6316 C.ar    1  UNL1        0.1387
     18 C         142.9814  140.7615  162.8292 C.ar    1  UNL1        0.0369
     19 O         143.3865  138.4943  164.0314 O.3     1  UNL1       -0.4728
     20 C         142.5557  138.3262  165.2690 C.3     1  UNL1        0.2346
     21 C         141.1366  138.8118  165.2914 C.3     1  UNL1        0.1588
     22 C         139.9228  138.0041  164.9389 C.3     1  UNL1        0.0360
     23 C         138.7182  138.8833  165.0998 C.3     1  UNL1        0.0347
     24 C         139.1875  140.2344  165.5518 C.3     1  UNL1        0.1423
     25 O         140.6822  140.1902  165.6702 O.3     1  UNL1       -0.3524
     26 C         141.3752  144.8353  158.4084 C.3     1  UNL1        0.0870
     27 C         140.4300  144.5235  157.2860 C.3     1  UNL1        0.0240
     28 C         141.0343  145.6278  156.4703 C.3     1  UNL1        0.0197
     29 C         141.9794  145.9395  157.5926 C.3     1  UNL1        0.0240
     30 C         140.7933  146.1882  155.1000 C.3     1  UNL1        0.0722
     31 N         140.1259  147.5222  154.9419 N.3     1  UNL1       -0.2726
     32 C         140.3403  148.7177  154.0617 C.3     1  UNL1        0.0735
     33 C         139.1822  149.4089  154.7183 C.3     1  UNL1        0.0346
     34 C         138.9679  148.2134  155.5986 C.3     1  UNL1        0.0735
@<TRIPOS>BOND
     1     1     2    1
     2     2     3   ar
     3     3     4   ar
     4     4     5   ar
     5     5     6   ar
     6     6     7   ar
     7     7     8   ar
     8     8    13    1
     9    13    14   ar
    10    14    15   ar
    11    15    16   ar
    12    16    17   ar
    13    17    19    1
    14    19    20    1
    15    21    20    1
    16    21    22    1
    17    22    23    1
    18    23    24    1
    19    24    25    1
    20    17    18   ar
    21     8     9   ar
    22     9    10   ar
    23    26    10    1
    24    26    27    1
    25    27    28    1
    26    28    30    1
    27    30    31    1
    28    31    32    1
    29    32    33    1
    30    33    34    1
    31    28    29    1
    32     7     2   ar
    33    18    13   ar
    34    29    26    1
    35    10     6   ar
    36    34    31    1
    37    25    21    1
    38     1    11    1
    39     1    12    1
@<TRIPOS>MOLECULE
*****
 34 39 0 0 0
SMALL
GASTEIGER

@<TRIPOS>ATOM
      1 N         142.7314  139.3810  168.2306 N.pl3   1  UNL1       -0.3425
      2 C         142.8440  139.5165  166.7410 C.ar    1  UNL1        0.1300
      3 N         143.8949  138.7487  165.9953 N.ar    1  UNL1       -0.2094
      4 C         144.0075  138.8842  164.5057 C.ar    1  UNL1        0.2014
      5 N         143.0693  139.7876  163.7618 N.ar    1  UNL1       -0.2065
      6 C         142.0184  140.5555  164.5074 C.ar    1  UNL1        0.1482
      7 C         141.9058  140.4199  165.9970 C.ar    1  UNL1        0.0668
      8 C         140.7787  141.2957  166.4582 C.ar    1  UNL1        0.0229
      9 C         140.1948  141.9726  165.2537 C.ar    1  UNL1        0.0771
     10 N         140.9609  141.5151  164.0480 N.ar    1  UNL1       -0.3133
     11 H         143.3472  138.7880  168.7189 H       1  UNL1        0.1437
     12 H         142.0416  139.8849  168.7200 H       1  UNL1        0.1437
     13 C         140.3167  141.4650  167.8753 C.ar    1  UNL1        0.0046
     14 C         140.5271  142.7712  168.5818 C.ar    1  UNL1        0.0003
     15 C         140.0652  142.9405  169.9988 C.ar    1  UNL1        0.0031
     16 C         139.3927  141.8034  170.7093 C.ar    1  UNL1        0.0369
     17 C         139.1822  140.4970  170.0028 C.ar    1  UNL1        0.1387
     18 C         139.6442  140.3278  168.5858 C.ar    1  UNL1        0.0369
     19 O         138.5098  139.3599  170.7132 O.3     1  UNL1       -0.4728
     20 C         137.0214  139.3669  170.8989 C.3     1  UNL1        0.2346
     21 C         136.3748  138.3682  171.8126 C.3     1  UNL1        0.1588
     22 C         137.0052  137.1094  172.3302 C.3     1  UNL1        0.0360
     23 C         136.0044  136.4163  173.2065 C.3     1  UNL1        0.0347
     24 C         134.7555  137.2467  173.2305 C.3     1  UNL1        0.1423
     25 O         134.9844  138.4531  172.3690 O.3     1  UNL1       -0.3524
     26 C         140.7132  141.9421  162.6316 C.3     1  UNL1        0.0870
     27 C         141.3895  141.6952  161.3156 C.3     1  UNL1        0.0240
     28 C         140.3629  142.5461  160.6285 C.3     1  UNL1        0.0197
     29 C         139.6867  142.7930  161.9444 C.3     1  UNL1        0.0240
     30 C         140.1152  142.9732  159.2120 C.3     1  UNL1        0.0722
     31 N         140.8639  144.1395  158.6385 N.3     1  UNL1       -0.2726
     32 C         140.5900  145.6069  158.4911 C.3     1  UNL1        0.0735
     33 C         141.9228  145.7891  157.8274 C.3     1  UNL1        0.0346
     34 C         142.1967  144.3217  157.9748 C.3     1  UNL1        0.0735
@<TRIPOS>BOND
     1     1     2    1
     2     2     3   ar
     3     3     4   ar
     4     4     5   ar
     5     5     6   ar
     6     6     7   ar
     7     7     8   ar
     8     8    13    1
     9    13    14   ar
    10    14    15   ar
    11    15    16   ar
    12    16    17   ar
    13    17    19    1
    14    19    20    1
    15    21    20    1
    16    21    22    1
    17    22    23    1
    18    23    24    1
    19    24    25    1
    20    17    18   ar
    21     8     9   ar
    22     9    10   ar
    23    26    10    1
    24    26    27    1
    25    27    28    1
    26    28    30    1
    27    30    31    1
    28    31    32    1
    29    32    33    1
    30    33    34    1
    31    28    29    1
    32     7     2   ar
    33    18    13   ar
    34    29    26    1
    35    10     6   ar
    36    34    31    1
    37    25    21    1
    38     1    11    1
    39     1    12    1
@<TRIPOS>MOLECULE
*****
 34 39 0 0 0
SMALL
GASTEIGER

@<TRIPOS>ATOM
      1 N         142.0880  145.2093  161.6129 N.pl3   1  UNL1       -0.3425
      2 C         141.5315  144.8273  160.2733 C.ar    1  UNL1        0.1300
      3 N         142.1801  145.3343  159.0195 N.ar    1  UNL1       -0.2094
      4 C         141.6235  144.9523  157.6799 C.ar    1  UNL1        0.2014
      5 N         140.4184  144.0633  157.5943 N.ar    1  UNL1       -0.2065
      6 C         139.7698  143.5563  158.8481 C.ar    1  UNL1        0.1482
      7 C         140.3263  143.9383  160.1877 C.ar    1  UNL1        0.0668
      8 C         139.4804  143.2898  161.2431 C.ar    1  UNL1        0.0229
      9 C         138.4011  142.5070  160.5558 C.ar    1  UNL1        0.0771
     10 N         138.5800  142.6718  159.0757 N.ar    1  UNL1       -0.3133
     11 H         142.8790  145.7927  161.6691 H       1  UNL1        0.1437
     12 H         141.6623  144.8765  162.4359 H       1  UNL1        0.1437
     13 C         139.6790  143.4041  162.7255 C.ar    1  UNL1        0.0046
     14 C         138.9866  144.4906  163.4934 C.ar    1  UNL1        0.0003
     15 C         139.1852  144.6049  164.9758 C.ar    1  UNL1        0.0031
     16 C         140.0762  143.6325  165.6903 C.ar    1  UNL1        0.0369
     17 C         140.7686  142.5459  164.9224 C.ar    1  UNL1        0.1387
     18 C         140.5701  142.4316  163.4400 C.ar    1  UNL1        0.0369
     19 O         141.6597  141.5735  165.6368 O.3     1  UNL1       -0.4728
     20 C         141.5481  140.1050  165.3517 C.3     1  UNL1        0.2346
     21 C         140.2688  139.3790  165.6458 C.3     1  UNL1        0.1588
     22 C         139.8254  138.0874  165.0251 C.3     1  UNL1        0.0360
     23 C         138.4909  137.7273  165.6078 C.3     1  UNL1        0.0347
     24 C         138.1096  138.7962  166.5886 C.3     1  UNL1        0.1423
     25 O         139.2084  139.8170  166.6120 O.3     1  UNL1       -0.3524
     26 C         137.7200  142.0594  158.0101 C.3     1  UNL1        0.0870
     27 C         137.2561  140.6692  157.6903 C.3     1  UNL1        0.0240
     28 C         136.5038  141.1933  156.5032 C.3     1  UNL1        0.0197
     29 C         136.9676  142.5835  156.8230 C.3     1  UNL1        0.0240
     30 C         135.6438  140.5810  155.4376 C.3     1  UNL1        0.0722
     31 N         134.1811  140.3622  155.6880 N.3     1  UNL1       -0.2726
     32 C         133.3575  139.2429  156.2526 C.3     1  UNL1        0.0735
     33 C         132.1125  140.0528  156.0422 C.3     1  UNL1        0.0346
     34 C         132.9362  141.1721  155.4776 C.3     1  UNL1        0.0735
@<TRIPOS>BOND
     1     1     2    1
     2     2     3   ar
     3     3     4   ar
     4     4     5   ar
     5     5     6   ar
     6     6     7   ar
     7     7     8   ar
     8     8    13    1
     9    13    14   ar
    10    14    15   ar
    11    15    16   ar
    12    16    17   ar
    13    17    19    1
    14    19    20    1
    15    21    20    1
    16    21    22    1
    17    22    23    1
    18    23    24    1
    19    24    25    1
    20    17    18   ar
    21     8     9   ar
    22     9    10   ar
    23    26    10    1
    24    26    27    1
    25    27    28    1
    26    28    30    1
    27    30    31    1
    28    31    32    1
    29    32    33    1
    30    33    34    1
    31    28    29    1
    32     7     2   ar
    33    18    13   ar
    34    29    26    1
    35    10     6   ar
    36    34    31    1
    37    25    21    1
    38     1    11    1
    39     1    12    1
@<TRIPOS>MOLECULE
*****
 34 39 0 0 0
SMALL
GASTEIGER

@<TRIPOS>ATOM
      1 N         140.9355  140.2431  164.2880 N.pl3   1  UNL1       -0.3425
      2 C         140.2959  139.4937  163.1569 C.ar    1  UNL1        0.1300
      3 N         138.9427  138.8728  163.3388 N.ar    1  UNL1       -0.2094
      4 C         138.3031  138.1234  162.2078 C.ar    1  UNL1        0.2014
      5 N         139.0169  137.9948  160.8948 N.ar    1  UNL1       -0.2065
      6 C         140.3701  138.6156  160.7129 C.ar    1  UNL1        0.1482
      7 C         141.0097  139.3651  161.8440 C.ar    1  UNL1        0.0668
      8 C         142.3423  139.8669  161.3726 C.ar    1  UNL1        0.0229
      9 C         142.5265  139.4277  159.9502 C.ar    1  UNL1        0.0771
     10 N         141.3076  138.6543  159.5425 N.ar    1  UNL1       -0.3133
     11 H         140.4670  140.3275  165.1498 H       1  UNL1        0.1437
     12 H         141.8237  140.6506  164.1686 H       1  UNL1        0.1437
     13 C         143.3194  140.6675  162.1816 C.ar    1  UNL1        0.0046
     14 C         144.3849  139.9709  162.9748 C.ar    1  UNL1        0.0003
     15 C         145.3619  140.7714  163.7838 C.ar    1  UNL1        0.0031
     16 C         145.2734  142.2687  163.7997 C.ar    1  UNL1        0.0369
     17 C         144.2078  142.9654  163.0065 C.ar    1  UNL1        0.1387
     18 C         143.2308  142.1649  162.1975 C.ar    1  UNL1        0.0369
     19 O         144.1191  144.4627  163.0224 O.3     1  UNL1       -0.4728
     20 C         143.1038  145.1447  163.8907 C.3     1  UNL1        0.2346
     21 C         141.6519  145.1113  163.5149 C.3     1  UNL1        0.1588
     22 C         140.5221  144.6748  164.3997 C.3     1  UNL1        0.0360
     23 C         139.2470  144.8022  163.6200 C.3     1  UNL1        0.0347
     24 C         139.5888  145.3174  162.2534 C.3     1  UNL1        0.1423
     25 O         141.0752  145.5084  162.1885 O.3     1  UNL1       -0.3524
     26 C         141.0681  138.0294  158.2001 C.3     1  UNL1        0.0870
     27 C         139.8747  137.8583  157.3074 C.3     1  UNL1        0.0240
     28 C         140.7293  137.1456  156.3016 C.3     1  UNL1        0.0197
     29 C         141.9226  137.3167  157.1942 C.3     1  UNL1        0.0240
     30 C         140.4898  136.5207  154.9591 C.3     1  UNL1        0.0722
     31 N         141.2348  135.2796  154.5660 N.3     1  UNL1       -0.2726
     32 C         142.0223  134.8514  153.3632 C.3     1  UNL1        0.0735
     33 C         142.2884  133.5244  154.0099 C.3     1  UNL1        0.0346
     34 C         141.5009  133.9525  155.2126 C.3     1  UNL1        0.0735
@<TRIPOS>BOND
     1     1     2    1
     2     2     3   ar
     3     3     4   ar
     4     4     5   ar
     5     5     6   ar
     6     6     7   ar
     7     7     8   ar
     8     8    13    1
     9    13    14   ar
    10    14    15   ar
    11    15    16   ar
    12    16    17   ar
    13    17    19    1
    14    19    20    1
    15    21    20    1
    16    21    22    1
    17    22    23    1
    18    23    24    1
    19    24    25    1
    20    17    18   ar
    21     8     9   ar
    22     9    10   ar
    23    26    10    1
    24    26    27    1
    25    27    28    1
    26    28    30    1
    27    30    31    1
    28    31    32    1
    29    32    33    1
    30    33    34    1
    31    28    29    1
    32     7     2   ar
    33    18    13   ar
    34    29    26    1
    35    10     6   ar
    36    34    31    1
    37    25    21    1
    38     1    11    1
    39     1    12    1
@<TRIPOS>MOLECULE
*****
 34 39 0 0 0
SMALL
GASTEIGER

@<TRIPOS>ATOM
      1 N         142.1809  142.7827  164.6722 N.pl3   1  UNL1       -0.3425
      2 C         143.3499  142.4765  163.7836 C.ar    1  UNL1        0.1300
      3 N         144.6331  141.9766  164.3780 N.ar    1  UNL1       -0.2094
      4 C         145.8022  141.6704  163.4894 C.ar    1  UNL1        0.2014
      5 N         145.6880  141.8642  162.0064 N.ar    1  UNL1       -0.2065
      6 C         144.4048  142.3641  161.4120 C.ar    1  UNL1        0.1482
      7 C         143.2357  142.6703  162.3006 C.ar    1  UNL1        0.0668
      8 C         142.1072  143.1458  161.4345 C.ar    1  UNL1        0.0229
      9 C         142.5787  143.1335  160.0106 C.ar    1  UNL1        0.0771
     10 N         143.9987  142.6504  159.9967 N.ar    1  UNL1       -0.3133
     11 H         142.2558  142.6555  165.6456 H       1  UNL1        0.1437
     12 H         141.3386  143.1108  164.2821 H       1  UNL1        0.1437
     13 C         140.7460  143.5607  161.9090 C.ar    1  UNL1        0.0046
     14 C         140.4716  144.9988  162.2351 C.ar    1  UNL1        0.0003
     15 C         139.1104  145.4137  162.7096 C.ar    1  UNL1        0.0031
     16 C         138.0237  144.3905  162.8580 C.ar    1  UNL1        0.0369
     17 C         138.2981  142.9524  162.5318 C.ar    1  UNL1        0.1387
     18 C         139.6592  142.5374  162.0573 C.ar    1  UNL1        0.0369
     19 O         137.2114  141.9291  162.6801 O.3     1  UNL1       -0.4728
     20 C         137.5300  140.4705  162.5352 C.3     1  UNL1        0.2346
     21 C         138.0614  139.6988  163.7067 C.3     1  UNL1        0.1588
     22 C         138.1764  140.2022  165.1150 C.3     1  UNL1        0.0360
     23 C         138.7571  139.1029  165.9542 C.3     1  UNL1        0.0347
     24 C         139.0009  137.9201  165.0646 C.3     1  UNL1        0.1423
     25 O         138.5710  138.2884  163.6755 O.3     1  UNL1       -0.3524
     26 C         144.8612  142.4830  158.7810 C.3     1  UNL1        0.0870
     27 C         144.6798  141.8572  157.4298 C.3     1  UNL1        0.0240
     28 C         146.0809  142.2462  157.0616 C.3     1  UNL1        0.0197
     29 C         146.2622  142.8720  158.4127 C.3     1  UNL1        0.0240
     30 C         146.9435  142.0788  155.8458 C.3     1  UNL1        0.0722
     31 N         146.8256  143.0442  154.7039 N.3     1  UNL1       -0.2726
     32 C         147.7956  143.7087  153.7724 C.3     1  UNL1        0.0735
     33 C         146.6591  144.4097  153.0890 C.3     1  UNL1        0.0346
     34 C         145.6892  143.7452  154.0205 C.3     1  UNL1        0.0735
@<TRIPOS>BOND
     1     1     2    1
     2     2     3   ar
     3     3     4   ar
     4     4     5   ar
     5     5     6   ar
     6     6     7   ar
     7     7     8   ar
     8     8    13    1
     9    13    14   ar
    10    14    15   ar
    11    15    16   ar
    12    16    17   ar
    13    17    19    1
    14    19    20    1
    15    21    20    1
    16    21    22    1
    17    22    23    1
    18    23    24    1
    19    24    25    1
    20    17    18   ar
    21     8     9   ar
    22     9    10   ar
    23    26    10    1
    24    26    27    1
    25    27    28    1
    26    28    30    1
    27    30    31    1
    28    31    32    1
    29    32    33    1
    30    33    34    1
    31    28    29    1
    32     7     2   ar
    33    18    13   ar
    34    29    26    1
    35    10     6   ar
    36    34    31    1
    37    25    21    1
    38     1    11    1
    39     1    12    1
@<TRIPOS>MOLECULE
*****
 34 39 0 0 0
SMALL
GASTEIGER

@<TRIPOS>ATOM
      1 N         138.6174  140.9932  165.1388 N.pl3   1  UNL1       -0.3425
      2 C         138.6125  142.1313  164.1618 C.ar    1  UNL1        0.1300
      3 N         137.6965  143.2996  164.3758 N.ar    1  UNL1       -0.2094
      4 C         137.6917  144.4378  163.3987 C.ar    1  UNL1        0.2014
      5 N         138.6029  144.4076  162.2076 N.ar    1  UNL1       -0.2065
      6 C         139.5189  143.2392  161.9936 C.ar    1  UNL1        0.1482
      7 C         139.5238  142.1011  162.9707 C.ar    1  UNL1        0.0668
      8 C         140.5286  141.0913  162.5010 C.ar    1  UNL1        0.0229
      9 C         141.1448  141.6053  161.2337 C.ar    1  UNL1        0.0771
     10 N         140.5208  142.9328  160.9201 N.ar    1  UNL1       -0.3133
     11 H         138.0193  141.0131  165.9206 H       1  UNL1        0.1437
     12 H         139.2186  140.2264  164.9984 H       1  UNL1        0.1437
     13 C         140.8592  139.7951  163.1796 C.ar    1  UNL1        0.0046
     14 C         140.3342  138.5036  162.6263 C.ar    1  UNL1        0.0003
     15 C         140.6648  137.2073  163.3049 C.ar    1  UNL1        0.0031
     16 C         141.5204  137.2026  164.5369 C.ar    1  UNL1        0.0369
     17 C         142.0455  138.4941  165.0903 C.ar    1  UNL1        0.1387
     18 C         141.7149  139.7904  164.4117 C.ar    1  UNL1        0.0369
     19 O         142.9012  138.4895  166.3222 O.3     1  UNL1       -0.4728
     20 C         142.8633  139.6548  167.2660 C.3     1  UNL1        0.2346
     21 C         141.6855  139.8455  168.1752 C.3     1  UNL1        0.1588
     22 C         141.6877  139.6843  169.6665 C.3     1  UNL1        0.0360
     23 C         140.3023  139.9701  170.1656 C.3     1  UNL1        0.0347
     24 C         139.4440  140.3080  168.9829 C.3     1  UNL1        0.1423
     25 O         140.2988  140.2310  167.7527 O.3     1  UNL1       -0.3524
     26 C         140.8422  143.8014  159.7402 C.3     1  UNL1        0.0870
     27 C         140.7746  145.2729  159.4566 C.3     1  UNL1        0.0240
     28 C         141.2967  145.0299  158.0715 C.3     1  UNL1        0.0197
     29 C         141.3643  143.5585  158.3552 C.3     1  UNL1        0.0240
     30 C         141.6181  145.8984  156.8916 C.3     1  UNL1        0.0722
     31 N         140.5101  146.4831  156.0668 N.3     1  UNL1       -0.2726
     32 C         139.0121  146.4740  156.1438 C.3     1  UNL1        0.0735
     33 C         138.9430  147.3100  154.9003 C.3     1  UNL1        0.0346
     34 C         140.4410  147.3192  154.8232 C.3     1  UNL1        0.0735
@<TRIPOS>BOND
     1     1     2    1
     2     2     3   ar
     3     3     4   ar
     4     4     5   ar
     5     5     6   ar
     6     6     7   ar
     7     7     8   ar
     8     8    13    1
     9    13    14   ar
    10    14    15   ar
    11    15    16   ar
    12    16    17   ar
    13    17    19    1
    14    19    20    1
    15    21    20    1
    16    21    22    1
    17    22    23    1
    18    23    24    1
    19    24    25    1
    20    17    18   ar
    21     8     9   ar
    22     9    10   ar
    23    26    10    1
    24    26    27    1
    25    27    28    1
    26    28    30    1
    27    30    31    1
    28    31    32    1
    29    32    33    1
    30    33    34    1
    31    28    29    1
    32     7     2   ar
    33    18    13   ar
    34    29    26    1
    35    10     6   ar
    36    34    31    1
    37    25    21    1
    38     1    11    1
    39     1    12    1
