@<TRIPOS>MOLECULE
*****
 42 47 0 0 0
SMALL
GASTEIGER

@<TRIPOS>ATOM
      1 N         139.2684  142.3341  158.8892 N.am    1  UNL1       -0.2222
      2 C         139.4480  141.8031  160.2806 C.2     1  UNL1        0.3219
      3 O         139.0770  140.4293  160.7548 O.2     1  UNL1       -0.2512
      4 N         140.0638  142.8873  161.1145 N.am    1  UNL1       -0.1907
      5 C         140.2648  144.0883  160.2385 C.2     1  UNL1        0.2529
      6 O         140.8539  145.4007  160.6632 O.2     1  UNL1       -0.2724
      7 C         139.7732  143.7464  158.8632 C.3     1  UNL1        0.1391
      8 C         139.2455  143.2627  157.5450 C.3     1  UNL1        0.0449
      9 C         139.2567  144.1732  156.3530 C.3     1  UNL1        0.0746
     10 N         139.7956  145.5674  156.4792 N.3     1  UNL1       -0.2676
     11 C         140.3233  146.0510  157.7974 C.3     1  UNL1        0.0746
     12 C         140.3121  145.1405  158.9893 C.3     1  UNL1        0.0449
     13 C         136.6259  140.8728  156.3140 C.ar    1  UNL1        0.2293
     14 C         137.2081  141.6225  157.4754 C.ar    1  UNL1        0.0924
     15 C         138.6862  141.5843  157.7277 C.ar    1  UNL1        0.1453
     16 N         139.5821  140.7964  156.8186 N.ar    1  UNL1       -0.2084
     17 C         139.0000  140.0467  155.6572 C.ar    1  UNL1        0.2027
     18 N         137.5218  140.0848  155.4049 N.ar    1  UNL1       -0.1892
     19 C         134.5224  139.9260  155.1188 C.3     1  UNL1        0.2542
     20 O         135.1478  140.9109  156.0616 O.3     1  UNL1       -0.4560
     21 C         140.4167  142.7880  162.5689 C.ar    1  UNL1        0.0622
     22 C         141.5865  141.9548  163.0017 C.ar    1  UNL1        0.0154
     23 C         141.9394  141.8555  164.4562 C.ar    1  UNL1        0.0018
     24 C         141.1225  142.5893  165.4780 C.ar    1  UNL1        0.0061
     25 C         139.9526  143.4226  165.0453 C.ar    1  UNL1        0.0018
     26 C         139.5998  143.5219  163.5907 C.ar    1  UNL1        0.0154
     27 C         141.4754  142.4900  166.9325 C.ar    1  UNL1        0.0295
     28 C         142.8328  142.1811  167.4913 C.ar    1  UNL1        0.0070
     29 C         142.7292  142.1823  168.9877 C.ar    1  UNL1        0.0081
     30 C         141.3078  142.4919  169.3537 C.ar    1  UNL1        0.0434
     31 S         140.5330  142.6821  168.0835 S.2     1  UNL1       -0.0858
     32 C         140.7579  142.5935  170.7456 C.2     1  UNL1        0.0789
     33 O         141.5448  142.0562  171.9040 O.co2   1  UNL1       -0.5441
     34 O         139.4210  143.2324  170.9790 O.co2   1  UNL1       -0.5441
     35 C         139.8068  146.4779  155.2872 C.3     1  UNL1        0.1183
     36 C         139.3899  147.9112  155.4343 C.ar    1  UNL1        0.0712
     37 N         138.6434  148.3534  156.6579 N.ar    1  UNL1       -0.2471
     38 C         138.2265  149.7868  156.8050 C.ar    1  UNL1        0.0985
     39 C         138.5560  150.7779  155.7284 C.ar    1  UNL1        0.0203
     40 C         139.3024  150.3358  154.5048 C.ar    1  UNL1       -0.0015
     41 C         139.7193  148.9024  154.3577 C.ar    1  UNL1       -0.0069
     42 C         140.4658  148.4602  153.1340 C.3     1  UNL1        0.0323
@<TRIPOS>UNITY_ATOM_ATTR
33 1
charge -1
@<TRIPOS>BOND
     1    19    20    1
     2    20    13    1
     3    13    14   ar
     4    14    15   ar
     5    15     1    1
     6     1     2   am
     7     2     3    2
     8     2     4   am
     9     4    21    1
    10    21    22   ar
    11    22    23   ar
    12    23    24   ar
    13    24    27    1
    14    27    28   ar
    15    28    29   ar
    16    29    30   ar
    17    30    32    1
    18    32    33   ar
    19    32    34   ar
    20    30    31   ar
    21    24    25   ar
    22    25    26   ar
    23     4     5   am
    24     5     6    2
    25     5     7    1
    26     7     8    1
    27     8     9    1
    28     9    10    1
    29    10    35    1
    30    35    36    1
    31    36    37   ar
    32    37    38   ar
    33    38    39   ar
    34    39    40   ar
    35    40    41   ar
    36    41    42    1
    37    10    11    1
    38    11    12    1
    39    15    16   ar
    40    16    17   ar
    41    17    18   ar
    42    18    13   ar
    43     7     1    1
    44    41    36   ar
    45    26    21   ar
    46    12     7    1
    47    31    27   ar
@<TRIPOS>MOLECULE
*****
 42 47 0 0 0
SMALL
GASTEIGER

@<TRIPOS>ATOM
      1 N         142.0569  138.1285  158.7639 N.am    1  UNL1       -0.2222
      2 C         142.4787  138.0827  160.2027 C.2     1  UNL1        0.3219
      3 O         143.7316  137.4523  160.7346 O.2     1  UNL1       -0.2512
      4 N         141.4276  138.7780  161.0162 N.am    1  UNL1       -0.1907
      5 C         140.3562  139.2535  160.0802 C.2     1  UNL1        0.2529
      6 O         139.1140  139.9995  160.4680 O.2     1  UNL1       -0.2724
      7 C         140.7452  138.8521  158.6882 C.3     1  UNL1        0.1391
      8 C         141.2630  138.3869  157.3595 C.3     1  UNL1        0.0449
      9 C         140.4780  138.6610  156.1110 C.3     1  UNL1        0.0746
     10 N         139.1752  139.4002  156.1913 N.3     1  UNL1       -0.2676
     11 C         138.6575  139.8653  157.5200 C.3     1  UNL1        0.0746
     12 C         139.4424  139.5912  158.7685 C.3     1  UNL1        0.0449
     13 C         143.4757  135.5094  156.1415 C.ar    1  UNL1        0.2293
     14 C         142.7186  136.0860  157.3009 C.ar    1  UNL1        0.0924
     15 C         142.8140  137.5519  157.6045 C.ar    1  UNL1        0.1453
     16 N         143.6664  138.4411  156.7485 N.ar    1  UNL1       -0.2084
     17 C         144.4235  137.8646  155.5891 C.ar    1  UNL1        0.2027
     18 N         144.3282  136.3987  155.2855 N.ar    1  UNL1       -0.1892
     19 C         142.0467  133.4241  155.5423 C.3     1  UNL1        0.2542
     20 O         143.3804  134.0436  155.8379 O.3     1  UNL1       -0.4560
     21 C         141.4448  138.9650  162.5044 C.ar    1  UNL1        0.0622
     22 C         141.5212  140.3455  163.0860 C.ar    1  UNL1        0.0154
     23 C         141.5384  140.5325  164.5742 C.ar    1  UNL1        0.0018
     24 C         141.4793  139.3390  165.4808 C.ar    1  UNL1        0.0061
     25 C         141.4029  137.9583  164.8992 C.ar    1  UNL1        0.0018
     26 C         141.3857  137.7715  163.4110 C.ar    1  UNL1        0.0154
     27 C         141.4965  139.5259  166.9690 C.ar    1  UNL1        0.0295
     28 C         142.6895  139.3650  167.8641 C.ar    1  UNL1        0.0070
     29 C         142.2541  139.6463  169.2717 C.ar    1  UNL1        0.0081
     30 C         140.7921  139.9810  169.2465 C.ar    1  UNL1        0.0434
     31 S         140.3239  139.9067  167.8234 S.2     1  UNL1       -0.0858
     32 C         139.9468  140.3291  170.4357 C.2     1  UNL1        0.0789
     33 O         138.4833  140.0001  170.4377 O.co2   1  UNL1       -0.5441
     34 O         140.5648  141.0061  171.6230 O.co2   1  UNL1       -0.5441
     35 C         138.3903  139.6742  154.9428 C.3     1  UNL1        0.1183
     36 C         136.9514  140.0875  155.0370 C.ar    1  UNL1        0.0712
     37 N         135.8819  139.0488  155.2016 N.ar    1  UNL1       -0.2471
     38 C         134.4430  139.4622  155.2959 C.ar    1  UNL1        0.0985
     39 C         134.0737  140.9143  155.2255 C.ar    1  UNL1        0.0203
     40 C         135.1433  141.9530  155.0609 C.ar    1  UNL1       -0.0015
     41 C         136.5821  141.5397  154.9667 C.ar    1  UNL1       -0.0069
     42 C         137.6516  142.5785  154.8020 C.3     1  UNL1        0.0323
@<TRIPOS>UNITY_ATOM_ATTR
33 1
charge -1
@<TRIPOS>BOND
     1    19    20    1
     2    20    13    1
     3    13    14   ar
     4    14    15   ar
     5    15     1    1
     6     1     2   am
     7     2     3    2
     8     2     4   am
     9     4    21    1
    10    21    22   ar
    11    22    23   ar
    12    23    24   ar
    13    24    27    1
    14    27    28   ar
    15    28    29   ar
    16    29    30   ar
    17    30    32    1
    18    32    33   ar
    19    32    34   ar
    20    30    31   ar
    21    24    25   ar
    22    25    26   ar
    23     4     5   am
    24     5     6    2
    25     5     7    1
    26     7     8    1
    27     8     9    1
    28     9    10    1
    29    10    35    1
    30    35    36    1
    31    36    37   ar
    32    37    38   ar
    33    38    39   ar
    34    39    40   ar
    35    40    41   ar
    36    41    42    1
    37    10    11    1
    38    11    12    1
    39    15    16   ar
    40    16    17   ar
    41    17    18   ar
    42    18    13   ar
    43     7     1    1
    44    41    36   ar
    45    26    21   ar
    46    12     7    1
    47    31    27   ar
@<TRIPOS>MOLECULE
*****
 42 47 0 0 0
SMALL
GASTEIGER

@<TRIPOS>ATOM
      1 N         142.4073  138.9256  159.4374 N.am    1  UNL1       -0.2222
      2 C         142.1173  138.6585  160.8847 C.2     1  UNL1        0.3219
      3 O         141.3842  137.4699  161.4323 O.2     1  UNL1       -0.2512
      4 N         142.6890  139.7888  161.6882 N.am    1  UNL1       -0.1907
      5 C         143.3324  140.7544  160.7376 C.2     1  UNL1        0.2529
      6 O         144.0278  142.0296  161.1121 O.2     1  UNL1       -0.2724
      7 C         143.1583  140.2209  159.3464 C.3     1  UNL1        0.1391
      8 C         142.9085  139.5661  158.0203 C.3     1  UNL1        0.0449
      9 C         143.3992  140.2141  156.7596 C.3     1  UNL1        0.0746
     10 N         144.1397  141.5169  156.8252 N.3     1  UNL1       -0.2676
     11 C         144.3895  142.1717  158.1513 C.3     1  UNL1        0.0746
     12 C         143.8988  141.5237  159.4120 C.3     1  UNL1        0.0449
     13 C         140.2441  137.2756  156.5481 C.ar    1  UNL1        0.2293
     14 C         140.6362  138.1503  157.7019 C.ar    1  UNL1        0.0924
     15 C         142.0152  138.0509  158.2836 C.ar    1  UNL1        0.1453
     16 N         143.0021  137.0768  157.7116 N.ar    1  UNL1       -0.2084
     17 C         142.6101  136.2021  156.5579 C.ar    1  UNL1        0.2027
     18 N         141.2310  136.3015  155.9761 N.ar    1  UNL1       -0.1892
     19 C         138.5392  138.4678  154.9919 C.3     1  UNL1        0.2542
     20 O         138.8651  137.3749  155.9663 O.3     1  UNL1       -0.4560
     21 C         142.6281  139.9289  163.1804 C.ar    1  UNL1        0.0622
     22 C         143.4620  139.0374  164.0520 C.ar    1  UNL1        0.0154
     23 C         143.4010  139.1776  165.5443 C.ar    1  UNL1        0.0018
     24 C         142.5062  140.2092  166.1648 C.ar    1  UNL1        0.0061
     25 C         141.6723  141.1007  165.2931 C.ar    1  UNL1        0.0018
     26 C         141.7333  140.9605  163.8009 C.ar    1  UNL1        0.0154
     27 C         142.4453  140.3493  167.6570 C.ar    1  UNL1        0.0295
     28 C         142.7033  139.2605  168.6561 C.ar    1  UNL1        0.0070
     29 C         142.5331  139.8410  170.0286 C.ar    1  UNL1        0.0081
     30 C         142.1699  141.2886  169.8779 C.ar    1  UNL1        0.0434
     31 S         142.1157  141.6027  168.4121 S.2     1  UNL1       -0.0858
     32 C         141.9072  142.2528  170.9965 C.2     1  UNL1        0.0789
     33 O         140.7982  141.9869  171.9709 O.co2   1  UNL1       -0.5441
     34 O         142.7532  143.4829  171.1407 O.co2   1  UNL1       -0.5441
     35 C         144.6305  142.1649  155.5645 C.3     1  UNL1        0.1183
     36 C         146.0689  142.0286  155.1619 C.ar    1  UNL1        0.0712
     37 N         147.1506  142.1386  156.1953 N.ar    1  UNL1       -0.2471
     38 C         148.5892  142.0022  155.7926 C.ar    1  UNL1        0.0985
     39 C         148.9460  141.7558  154.3567 C.ar    1  UNL1        0.0203
     40 C         147.8643  141.6458  153.3233 C.ar    1  UNL1       -0.0015
     41 C         146.4258  141.7822  153.7259 C.ar    1  UNL1       -0.0069
     42 C         145.3441  141.6722  152.6925 C.3     1  UNL1        0.0323
@<TRIPOS>UNITY_ATOM_ATTR
33 1
charge -1
@<TRIPOS>BOND
     1    19    20    1
     2    20    13    1
     3    13    14   ar
     4    14    15   ar
     5    15     1    1
     6     1     2   am
     7     2     3    2
     8     2     4   am
     9     4    21    1
    10    21    22   ar
    11    22    23   ar
    12    23    24   ar
    13    24    27    1
    14    27    28   ar
    15    28    29   ar
    16    29    30   ar
    17    30    32    1
    18    32    33   ar
    19    32    34   ar
    20    30    31   ar
    21    24    25   ar
    22    25    26   ar
    23     4     5   am
    24     5     6    2
    25     5     7    1
    26     7     8    1
    27     8     9    1
    28     9    10    1
    29    10    35    1
    30    35    36    1
    31    36    37   ar
    32    37    38   ar
    33    38    39   ar
    34    39    40   ar
    35    40    41   ar
    36    41    42    1
    37    10    11    1
    38    11    12    1
    39    15    16   ar
    40    16    17   ar
    41    17    18   ar
    42    18    13   ar
    43     7     1    1
    44    41    36   ar
    45    26    21   ar
    46    12     7    1
    47    31    27   ar
@<TRIPOS>MOLECULE
*****
 42 47 0 0 0
SMALL
GASTEIGER

@<TRIPOS>ATOM
      1 N         141.6323  139.1442  159.3337 N.am    1  UNL1       -0.2222
      2 C         141.1350  138.9039  160.7284 C.2     1  UNL1        0.3219
      3 O         140.4589  137.6589  161.2211 O.2     1  UNL1       -0.2512
      4 N         141.4324  140.1274  161.5437 N.am    1  UNL1       -0.1907
      5 C         142.1135  141.1237  160.6530 C.2     1  UNL1        0.2529
      6 O         142.5878  142.4881  161.0571 O.2     1  UNL1       -0.2724
      7 C         142.2371  140.5161  159.2871 C.3     1  UNL1        0.1391
      8 C         142.2893  139.7816  157.9803 C.3     1  UNL1        0.0449
      9 C         142.9088  140.4317  156.7789 C.3     1  UNL1        0.0746
     10 N         143.4761  141.8163  156.8842 N.3     1  UNL1       -0.2676
     11 C         143.4239  142.5508  158.1911 C.3     1  UNL1        0.0746
     12 C         142.8044  141.9006  159.3925 C.3     1  UNL1        0.0449
     13 C         142.5525  136.2311  156.8006 C.ar    1  UNL1        0.2293
     14 C         142.6439  137.1937  157.9473 C.ar    1  UNL1        0.0924
     15 C         141.5409  138.1815  158.1870 C.ar    1  UNL1        0.1453
     16 N         140.3464  138.2067  157.2800 N.ar    1  UNL1       -0.2084
     17 C         140.2549  137.2441  156.1333 C.ar    1  UNL1        0.2027
     18 N         141.3581  136.2562  155.8936 N.ar    1  UNL1       -0.1892
     19 C         143.7089  133.9715  157.3544 C.3     1  UNL1        0.2542
     20 O         143.6555  135.2432  156.5608 O.3     1  UNL1       -0.4560
     21 C         141.1060  140.3205  162.9949 C.ar    1  UNL1        0.0622
     22 C         140.2355  141.4650  163.4220 C.ar    1  UNL1        0.0154
     23 C         139.9091  141.6581  164.8733 C.ar    1  UNL1        0.0018
     24 C         140.4532  140.7069  165.8975 C.ar    1  UNL1        0.0061
     25 C         141.3238  139.5623  165.4704 C.ar    1  UNL1        0.0018
     26 C         141.6501  139.3693  164.0191 C.ar    1  UNL1        0.0154
     27 C         140.1268  140.9000  167.3488 C.ar    1  UNL1        0.0295
     28 C         139.3960  139.9265  168.2252 C.ar    1  UNL1        0.0070
     29 C         139.2914  140.5254  169.5965 C.ar    1  UNL1        0.0081
     30 C         139.9577  141.8690  169.5675 C.ar    1  UNL1        0.0434
     31 S         140.4740  142.1005  168.1783 S.2     1  UNL1       -0.0858
     32 C         140.0852  142.8150  170.7245 C.2     1  UNL1        0.0789
     33 O         139.9463  144.2923  170.5043 O.co2   1  UNL1       -0.5441
     34 O         140.3517  142.2839  172.1018 O.co2   1  UNL1       -0.5441
     35 C         144.0957  142.4664  155.6827 C.3     1  UNL1        0.1183
     36 C         145.5501  142.2558  155.3824 C.ar    1  UNL1        0.0712
     37 N         146.5716  142.4199  156.4684 N.ar    1  UNL1       -0.2471
     38 C         148.0261  142.2093  156.1680 C.ar    1  UNL1        0.0985
     39 C         148.4590  141.8346  154.7816 C.ar    1  UNL1        0.0203
     40 C         147.4374  141.6704  153.6956 C.ar    1  UNL1       -0.0015
     41 C         145.9830  141.8810  153.9959 C.ar    1  UNL1       -0.0069
     42 C         144.9615  141.7169  152.9099 C.3     1  UNL1        0.0323
@<TRIPOS>UNITY_ATOM_ATTR
33 1
charge -1
@<TRIPOS>BOND
     1    19    20    1
     2    20    13    1
     3    13    14   ar
     4    14    15   ar
     5    15     1    1
     6     1     2   am
     7     2     3    2
     8     2     4   am
     9     4    21    1
    10    21    22   ar
    11    22    23   ar
    12    23    24   ar
    13    24    27    1
    14    27    28   ar
    15    28    29   ar
    16    29    30   ar
    17    30    32    1
    18    32    33   ar
    19    32    34   ar
    20    30    31   ar
    21    24    25   ar
    22    25    26   ar
    23     4     5   am
    24     5     6    2
    25     5     7    1
    26     7     8    1
    27     8     9    1
    28     9    10    1
    29    10    35    1
    30    35    36    1
    31    36    37   ar
    32    37    38   ar
    33    38    39   ar
    34    39    40   ar
    35    40    41   ar
    36    41    42    1
    37    10    11    1
    38    11    12    1
    39    15    16   ar
    40    16    17   ar
    41    17    18   ar
    42    18    13   ar
    43     7     1    1
    44    41    36   ar
    45    26    21   ar
    46    12     7    1
    47    31    27   ar
@<TRIPOS>MOLECULE
*****
 42 47 0 0 0
SMALL
GASTEIGER

@<TRIPOS>ATOM
      1 N         138.6495  141.7365  158.8654 N.am    1  UNL1       -0.2222
      2 C         138.6011  141.1553  160.2475 C.2     1  UNL1        0.3219
      3 O         137.9804  139.8450  160.6317 O.2     1  UNL1       -0.2512
      4 N         139.2825  142.1147  161.1778 N.am    1  UNL1       -0.1907
      5 C         139.7520  143.2886  160.3708 C.2     1  UNL1        0.2529
      6 O         140.4841  144.4861  160.8999 O.2     1  UNL1       -0.2724
      7 C         139.3608  143.0550  158.9416 C.3     1  UNL1        0.1391
      8 C         138.9069  142.6855  157.5605 C.3     1  UNL1        0.0449
      9 C         139.1792  143.6083  156.4097 C.3     1  UNL1        0.0746
     10 N         139.9054  144.9004  156.6400 N.3     1  UNL1       -0.2676
     11 C         140.3593  145.2698  158.0211 C.3     1  UNL1        0.0746
     12 C         140.0870  144.3471  159.1719 C.3     1  UNL1        0.0449
     13 C         138.3060  139.4350  155.6506 C.ar    1  UNL1        0.2293
     14 C         138.8699  140.0622  156.8910 C.ar    1  UNL1        0.0924
     15 C         138.0857  141.1093  157.6249 C.ar    1  UNL1        0.1453
     16 N         136.7377  141.5292  157.1184 N.ar    1  UNL1       -0.2084
     17 C         136.1738  140.9020  155.8781 C.ar    1  UNL1        0.2027
     18 N         136.9580  139.8549  155.1441 N.ar    1  UNL1       -0.1892
     19 C         139.2060  137.0036  155.4827 C.3     1  UNL1        0.2542
     20 O         139.0901  138.3879  154.9166 O.3     1  UNL1       -0.4560
     21 C         139.4627  141.9320  162.6556 C.ar    1  UNL1        0.0622
     22 C         138.2753  141.6452  163.5262 C.ar    1  UNL1        0.0154
     23 C         138.4555  141.4626  165.0041 C.ar    1  UNL1        0.0018
     24 C         139.8231  141.5668  165.6114 C.ar    1  UNL1        0.0061
     25 C         141.0105  141.8536  164.7409 C.ar    1  UNL1        0.0018
     26 C         140.8302  142.0362  163.2630 C.ar    1  UNL1        0.0154
     27 C         140.0033  141.3841  167.0894 C.ar    1  UNL1        0.0295
     28 C         139.5875  140.1834  167.8865 C.ar    1  UNL1        0.0070
     29 C         139.9582  140.4273  169.3194 C.ar    1  UNL1        0.0081
     30 C         140.6030  141.7787  169.4078 C.ar    1  UNL1        0.0434
     31 S         140.6309  142.3701  168.0295 S.2     1  UNL1       -0.0858
     32 C         141.1279  142.4253  170.6553 C.2     1  UNL1        0.0789
     33 O         140.5434  142.0659  171.9892 O.co2   1  UNL1       -0.5441
     34 O         142.2371  143.4313  170.5691 O.co2   1  UNL1       -0.5441
     35 C         140.1777  145.8231  155.4891 C.3     1  UNL1        0.1183
     36 C         139.6749  147.2359  155.5253 C.ar    1  UNL1        0.0712
     37 N         138.8868  147.7215  156.7056 N.ar    1  UNL1       -0.2471
     38 C         138.3841  149.1343  156.7418 C.ar    1  UNL1        0.0985
     39 C         138.6695  150.0615  155.5977 C.ar    1  UNL1        0.0203
     40 C         139.4577  149.5759  154.4175 C.ar    1  UNL1       -0.0015
     41 C         139.9604  148.1631  154.3812 C.ar    1  UNL1       -0.0069
     42 C         140.7485  147.6775  153.2010 C.3     1  UNL1        0.0323
@<TRIPOS>UNITY_ATOM_ATTR
33 1
charge -1
@<TRIPOS>BOND
     1    19    20    1
     2    20    13    1
     3    13    14   ar
     4    14    15   ar
     5    15     1    1
     6     1     2   am
     7     2     3    2
     8     2     4   am
     9     4    21    1
    10    21    22   ar
    11    22    23   ar
    12    23    24   ar
    13    24    27    1
    14    27    28   ar
    15    28    29   ar
    16    29    30   ar
    17    30    32    1
    18    32    33   ar
    19    32    34   ar
    20    30    31   ar
    21    24    25   ar
    22    25    26   ar
    23     4     5   am
    24     5     6    2
    25     5     7    1
    26     7     8    1
    27     8     9    1
    28     9    10    1
    29    10    35    1
    30    35    36    1
    31    36    37   ar
    32    37    38   ar
    33    38    39   ar
    34    39    40   ar
    35    40    41   ar
    36    41    42    1
    37    10    11    1
    38    11    12    1
    39    15    16   ar
    40    16    17   ar
    41    17    18   ar
    42    18    13   ar
    43     7     1    1
    44    41    36   ar
    45    26    21   ar
    46    12     7    1
    47    31    27   ar
@<TRIPOS>MOLECULE
*****
 42 47 0 0 0
SMALL
GASTEIGER

@<TRIPOS>ATOM
      1 N         140.3400  143.5604  159.0136 N.am    1  UNL1       -0.2222
      2 C         140.9359  143.8217  160.3652 C.2     1  UNL1        0.3219
      3 O         141.9231  144.9002  160.7000 O.2     1  UNL1       -0.2512
      4 N         140.3711  142.8150  161.3232 N.am    1  UNL1       -0.1907
      5 C         139.4262  141.9317  160.5637 C.2     1  UNL1        0.2529
      6 O         138.6388  140.7883  161.1318 O.2     1  UNL1       -0.2724
      7 C         139.4070  142.3923  159.1362 C.3     1  UNL1        0.1391
      8 C         139.4910  142.9632  157.7517 C.3     1  UNL1        0.0449
      9 C         138.6810  142.3615  156.6419 C.3     1  UNL1        0.0746
     10 N         137.7869  141.1888  156.9166 N.3     1  UNL1       -0.2676
     11 C         137.7028  140.6179  158.3012 C.3     1  UNL1        0.0746
     12 C         138.5129  141.2197  159.4110 C.3     1  UNL1        0.0449
     13 C         140.1263  146.3403  156.1893 C.ar    1  UNL1        0.2293
     14 C         139.8395  145.5689  157.4434 C.ar    1  UNL1        0.0924
     15 C         140.6268  144.3319  157.7595 C.ar    1  UNL1        0.1453
     16 N         141.7009  143.8663  156.8217 N.ar    1  UNL1       -0.2084
     17 C         141.9877  144.6377  155.5677 C.ar    1  UNL1        0.2027
     18 N         141.2004  145.8747  155.2515 N.ar    1  UNL1       -0.1892
     19 C         139.5693  148.3027  154.5805 C.3     1  UNL1        0.2542
     20 O         139.3390  147.5773  155.8731 O.3     1  UNL1       -0.4560
     21 C         140.6944  142.7101  162.7841 C.ar    1  UNL1        0.0622
     22 C         141.8269  141.8390  163.2410 C.ar    1  UNL1        0.0154
     23 C         142.1502  141.7341  164.7020 C.ar    1  UNL1        0.0018
     24 C         141.3412  142.5004  165.7061 C.ar    1  UNL1        0.0061
     25 C         140.2087  143.3716  165.2492 C.ar    1  UNL1        0.0018
     26 C         139.8854  143.4764  163.7882 C.ar    1  UNL1        0.0154
     27 C         141.6645  142.3955  167.1671 C.ar    1  UNL1        0.0295
     28 C         143.0395  142.3704  167.7662 C.ar    1  UNL1        0.0070
     29 C         142.8945  142.2567  169.2548 C.ar    1  UNL1        0.0081
     30 C         141.4299  142.2116  169.5757 C.ar    1  UNL1        0.0434
     31 S         140.6697  142.2973  168.2854 S.2     1  UNL1       -0.0858
     32 C         140.8306  142.1002  170.9463 C.2     1  UNL1        0.0789
     33 O         141.3941  141.1220  171.9340 O.co2   1  UNL1       -0.5441
     34 O         139.6679  142.9669  171.3292 O.co2   1  UNL1       -0.5441
     35 C         136.9769  140.5871  155.8067 C.3     1  UNL1        0.1183
     36 C         135.4788  140.5952  155.8820 C.ar    1  UNL1        0.0712
     37 N         134.7801  139.8769  156.9982 N.ar    1  UNL1       -0.2471
     38 C         133.2819  139.8850  157.0735 C.ar    1  UNL1        0.0985
     39 C         132.4826  140.6114  156.0326 C.ar    1  UNL1        0.0203
     40 C         133.1814  141.3297  154.9164 C.ar    1  UNL1       -0.0015
     41 C         134.6794  141.3216  154.8411 C.ar    1  UNL1       -0.0069
     42 C         135.3782  142.0399  153.7250 C.3     1  UNL1        0.0323
@<TRIPOS>UNITY_ATOM_ATTR
33 1
charge -1
@<TRIPOS>BOND
     1    19    20    1
     2    20    13    1
     3    13    14   ar
     4    14    15   ar
     5    15     1    1
     6     1     2   am
     7     2     3    2
     8     2     4   am
     9     4    21    1
    10    21    22   ar
    11    22    23   ar
    12    23    24   ar
    13    24    27    1
    14    27    28   ar
    15    28    29   ar
    16    29    30   ar
    17    30    32    1
    18    32    33   ar
    19    32    34   ar
    20    30    31   ar
    21    24    25   ar
    22    25    26   ar
    23     4     5   am
    24     5     6    2
    25     5     7    1
    26     7     8    1
    27     8     9    1
    28     9    10    1
    29    10    35    1
    30    35    36    1
    31    36    37   ar
    32    37    38   ar
    33    38    39   ar
    34    39    40   ar
    35    40    41   ar
    36    41    42    1
    37    10    11    1
    38    11    12    1
    39    15    16   ar
    40    16    17   ar
    41    17    18   ar
    42    18    13   ar
    43     7     1    1
    44    41    36   ar
    45    26    21   ar
    46    12     7    1
    47    31    27   ar
@<TRIPOS>MOLECULE
*****
 42 47 0 0 0
SMALL
GASTEIGER

@<TRIPOS>ATOM
      1 N         138.8343  141.2593  158.8956 N.am    1  UNL1       -0.2222
      2 C         138.6517  141.6865  160.3219 C.2     1  UNL1        0.3219
      3 O         137.8426  142.8577  160.7948 O.2     1  UNL1       -0.2512
      4 N         139.4202  140.7367  161.1922 N.am    1  UNL1       -0.1907
      5 C         140.0777  139.7226  160.3039 C.2     1  UNL1        0.2529
      6 O         140.9451  138.5852  160.7555 O.2     1  UNL1       -0.2724
      7 C         139.7156  140.0456  158.8844 C.3     1  UNL1        0.1391
      8 C         139.2710  140.4892  157.5223 C.3     1  UNL1        0.0449
      9 C         139.7127  139.7316  156.3055 C.3     1  UNL1        0.0746
     10 N         140.5991  138.5302  156.4507 N.3     1  UNL1       -0.2676
     11 C         141.0437  138.0866  157.8128 C.3     1  UNL1        0.0746
     12 C         140.6020  138.8442  159.0297 C.3     1  UNL1        0.0449
     13 C         136.3520  142.0992  155.9153 C.ar    1  UNL1        0.2293
     14 C         136.9463  141.4300  157.1190 C.ar    1  UNL1        0.0924
     15 C         138.2399  141.9284  157.6919 C.ar    1  UNL1        0.1453
     16 N         138.9391  143.0960  157.0610 N.ar    1  UNL1       -0.2084
     17 C         138.3448  143.7651  155.8573 C.ar    1  UNL1        0.2027
     18 N         137.0512  143.2667  155.2844 N.ar    1  UNL1       -0.1892
     19 C         134.3605  140.4317  155.9716 C.3     1  UNL1        0.2542
     20 O         135.0584  141.6008  155.3423 O.3     1  UNL1       -0.4560
     21 C         139.5145  140.7914  162.6882 C.ar    1  UNL1        0.0622
     22 C         138.3564  140.3435  163.5296 C.ar    1  UNL1        0.0154
     23 C         138.4508  140.3982  165.0257 C.ar    1  UNL1        0.0018
     24 C         139.7033  140.9009  165.6803 C.ar    1  UNL1        0.0061
     25 C         140.8615  141.3489  164.8388 C.ar    1  UNL1        0.0018
     26 C         140.7670  141.2941  163.3428 C.ar    1  UNL1        0.0154
     27 C         139.7977  140.9556  167.1763 C.ar    1  UNL1        0.0295
     28 C         139.3557  139.8832  168.1275 C.ar    1  UNL1        0.0070
     29 C         139.6354  140.3571  169.5228 C.ar    1  UNL1        0.0081
     30 C         140.2503  141.7225  169.4341 C.ar    1  UNL1        0.0434
     31 S         140.3505  142.0923  167.9839 S.2     1  UNL1       -0.0858
     32 C         140.6880  142.5693  170.5922 C.2     1  UNL1        0.0789
     33 O         141.4178  143.8566  170.3466 O.co2   1  UNL1       -0.5441
     34 O         140.3961  142.1288  171.9960 O.co2   1  UNL1       -0.5441
     35 C         141.0408  137.7725  155.2338 C.3     1  UNL1        0.1183
     36 C         141.8198  136.4996  155.3846 C.ar    1  UNL1        0.0712
     37 N         141.1003  135.1870  155.4816 N.ar    1  UNL1       -0.2471
     38 C         141.8793  133.9140  155.6324 C.ar    1  UNL1        0.0985
     39 C         143.3778  133.9537  155.6863 C.ar    1  UNL1        0.0203
     40 C         144.0973  135.2663  155.5893 C.ar    1  UNL1       -0.0015
     41 C         143.3183  136.5392  155.4385 C.ar    1  UNL1       -0.0069
     42 C         144.0378  137.8518  155.3415 C.3     1  UNL1        0.0323
@<TRIPOS>UNITY_ATOM_ATTR
33 1
charge -1
@<TRIPOS>BOND
     1    19    20    1
     2    20    13    1
     3    13    14   ar
     4    14    15   ar
     5    15     1    1
     6     1     2   am
     7     2     3    2
     8     2     4   am
     9     4    21    1
    10    21    22   ar
    11    22    23   ar
    12    23    24   ar
    13    24    27    1
    14    27    28   ar
    15    28    29   ar
    16    29    30   ar
    17    30    32    1
    18    32    33   ar
    19    32    34   ar
    20    30    31   ar
    21    24    25   ar
    22    25    26   ar
    23     4     5   am
    24     5     6    2
    25     5     7    1
    26     7     8    1
    27     8     9    1
    28     9    10    1
    29    10    35    1
    30    35    36    1
    31    36    37   ar
    32    37    38   ar
    33    38    39   ar
    34    39    40   ar
    35    40    41   ar
    36    41    42    1
    37    10    11    1
    38    11    12    1
    39    15    16   ar
    40    16    17   ar
    41    17    18   ar
    42    18    13   ar
    43     7     1    1
    44    41    36   ar
    45    26    21   ar
    46    12     7    1
    47    31    27   ar
@<TRIPOS>MOLECULE
*****
 42 47 0 0 0
SMALL
GASTEIGER

@<TRIPOS>ATOM
      1 N         141.6718  141.1207  161.9795 N.am    1  UNL1       -0.2222
      2 C         141.5255  140.7825  160.5254 C.2     1  UNL1        0.3219
      3 O         141.3929  141.7658  159.4005 O.2     1  UNL1       -0.2512
      4 N         141.5351  139.2882  160.3938 N.am    1  UNL1       -0.1907
      5 C         141.6873  138.7030  161.7665 C.2     1  UNL1        0.2529
      6 O         141.7449  137.2419  162.1007 O.2     1  UNL1       -0.2724
      7 C         141.7718  139.8355  162.7466 C.3     1  UNL1        0.1391
      8 C         141.8419  141.0646  163.6036 C.3     1  UNL1        0.0449
      9 C         141.9989  140.9347  165.0896 C.3     1  UNL1        0.0746
     10 N         142.0856  139.5757  165.7187 N.3     1  UNL1       -0.2676
     11 C         142.0155  138.3467  164.8618 C.3     1  UNL1        0.0746
     12 C         141.8586  138.4766  163.3757 C.3     1  UNL1        0.0449
     13 C         140.4814  144.5421  163.6001 C.ar    1  UNL1        0.2293
     14 C         140.4420  143.1612  163.0157 C.ar    1  UNL1        0.0924
     15 C         141.7111  142.5016  162.5639 C.ar    1  UNL1        0.1453
     16 N         143.0196  143.2229  162.6964 N.ar    1  UNL1       -0.2084
     17 C         143.0591  144.6038  163.2807 C.ar    1  UNL1        0.2027
     18 N         141.7899  145.2634  163.7326 N.ar    1  UNL1       -0.1892
     19 C         138.6295  144.8672  165.3930 C.3     1  UNL1        0.2542
     20 O         139.2123  145.2018  164.0520 O.3     1  UNL1       -0.4560
     21 C         141.4138  138.5151  159.1143 C.ar    1  UNL1        0.0622
     22 C         142.6119  137.8155  158.5442 C.ar    1  UNL1        0.0154
     23 C         142.4906  137.0423  157.2646 C.ar    1  UNL1        0.0018
     24 C         141.1711  136.9686  156.5550 C.ar    1  UNL1        0.0061
     25 C         139.9729  137.6682  157.1251 C.ar    1  UNL1        0.0018
     26 C         140.0943  138.4414  158.4047 C.ar    1  UNL1        0.0154
     27 C         141.0498  136.1954  155.2754 C.ar    1  UNL1        0.0295
     28 C         140.4964  136.7138  153.9811 C.ar    1  UNL1        0.0070
     29 C         140.5651  135.6069  152.9712 C.ar    1  UNL1        0.0081
     30 C         141.1610  134.4044  153.6413 C.ar    1  UNL1        0.0434
     31 S         141.4605  134.7681  155.0653 S.2     1  UNL1       -0.0858
     32 C         141.4131  133.0721  152.9999 C.2     1  UNL1        0.0789
     33 O         142.7023  132.3489  153.2548 O.co2   1  UNL1       -0.5441
     34 O         140.3760  132.4629  152.1037 O.co2   1  UNL1       -0.5441
     35 C         142.2426  139.4459  167.2049 C.3     1  UNL1        0.1183
     36 C         141.9049  140.6023  168.0986 C.ar    1  UNL1        0.0712
     37 N         142.9905  141.5156  168.5857 N.ar    1  UNL1       -0.2471
     38 C         142.6528  142.6721  169.4794 C.ar    1  UNL1        0.0985
     39 C         141.2296  142.9151  169.8860 C.ar    1  UNL1        0.0203
     40 C         140.1440  142.0017  169.3989 C.ar    1  UNL1       -0.0015
     41 C         140.4817  140.8454  168.5052 C.ar    1  UNL1       -0.0069
     42 C         139.3961  139.9320  168.0181 C.3     1  UNL1        0.0323
@<TRIPOS>UNITY_ATOM_ATTR
33 1
charge -1
@<TRIPOS>BOND
     1    19    20    1
     2    20    13    1
     3    13    14   ar
     4    14    15   ar
     5    15     1    1
     6     1     2   am
     7     2     3    2
     8     2     4   am
     9     4    21    1
    10    21    22   ar
    11    22    23   ar
    12    23    24   ar
    13    24    27    1
    14    27    28   ar
    15    28    29   ar
    16    29    30   ar
    17    30    32    1
    18    32    33   ar
    19    32    34   ar
    20    30    31   ar
    21    24    25   ar
    22    25    26   ar
    23     4     5   am
    24     5     6    2
    25     5     7    1
    26     7     8    1
    27     8     9    1
    28     9    10    1
    29    10    35    1
    30    35    36    1
    31    36    37   ar
    32    37    38   ar
    33    38    39   ar
    34    39    40   ar
    35    40    41   ar
    36    41    42    1
    37    10    11    1
    38    11    12    1
    39    15    16   ar
    40    16    17   ar
    41    17    18   ar
    42    18    13   ar
    43     7     1    1
    44    41    36   ar
    45    26    21   ar
    46    12     7    1
    47    31    27   ar
@<TRIPOS>MOLECULE
*****
 42 47 0 0 0
SMALL
GASTEIGER

@<TRIPOS>ATOM
      1 N         138.9709  141.4197  158.9500 N.am    1  UNL1       -0.2222
      2 C         138.7864  141.8251  160.3824 C.2     1  UNL1        0.3219
      3 O         137.9945  143.0017  160.8708 O.2     1  UNL1       -0.2512
      4 N         139.5328  140.8472  161.2407 N.am    1  UNL1       -0.1907
      5 C         140.1786  139.8375  160.3388 C.2     1  UNL1        0.2529
      6 O         141.0234  138.6777  160.7758 O.2     1  UNL1       -0.2724
      7 C         139.8313  140.1913  158.9230 C.3     1  UNL1        0.1391
      8 C         139.4031  140.6662  157.5662 C.3     1  UNL1        0.0449
      9 C         139.8396  139.9223  156.3390 C.3     1  UNL1        0.0746
     10 N         140.7043  138.7035  156.4687 N.3     1  UNL1       -0.2676
     11 C         141.1325  138.2286  157.8256 C.3     1  UNL1        0.0746
     12 C         140.6960  138.9725  159.0527 C.3     1  UNL1        0.0449
     13 C         138.5182  144.0168  155.9835 C.ar    1  UNL1        0.2293
     14 C         139.0932  143.3167  157.1790 C.ar    1  UNL1        0.0924
     15 C         138.3959  142.1199  157.7545 C.ar    1  UNL1        0.1453
     16 N         137.1235  141.6231  157.1345 N.ar    1  UNL1       -0.2084
     17 C         136.5485  142.3232  155.9391 C.ar    1  UNL1        0.2027
     18 N         137.2458  143.5201  155.3635 N.ar    1  UNL1       -0.1892
     19 C         138.4474  146.4752  155.1463 C.3     1  UNL1        0.2542
     20 O         139.2155  145.2136  155.4079 O.3     1  UNL1       -0.4560
     21 C         139.6184  140.8743  162.7379 C.ar    1  UNL1        0.0622
     22 C         138.4169  140.5231  163.5643 C.ar    1  UNL1        0.0154
     23 C         138.5025  140.5502  165.0617 C.ar    1  UNL1        0.0018
     24 C         139.7896  140.9284  165.7326 C.ar    1  UNL1        0.0061
     25 C         140.9913  141.2796  164.9062 C.ar    1  UNL1        0.0018
     26 C         140.9056  141.2525  163.4089 C.ar    1  UNL1        0.0154
     27 C         139.8752  140.9555  167.2299 C.ar    1  UNL1        0.0295
     28 C         139.2858  139.9417  168.1652 C.ar    1  UNL1        0.0070
     29 C         139.6115  140.3607  169.5681 C.ar    1  UNL1        0.0081
     30 C         140.4023  141.6335  169.4999 C.ar    1  UNL1        0.0434
     31 S         140.5653  142.0011  168.0548 S.2     1  UNL1       -0.0858
     32 C         140.9364  142.4036  170.6711 C.2     1  UNL1        0.0789
     33 O         140.4438  142.1010  172.0553 O.co2   1  UNL1       -0.5441
     34 O         141.9631  143.4762  170.4583 O.co2   1  UNL1       -0.5441
     35 C         141.1408  137.9595  155.2414 C.3     1  UNL1        0.1183
     36 C         141.8284  136.6330  155.3734 C.ar    1  UNL1        0.0712
     37 N         141.0195  135.3709  155.4269 N.ar    1  UNL1       -0.2471
     38 C         141.7072  134.0444  155.5589 C.ar    1  UNL1        0.0985
     39 C         143.2037  133.9799  155.6374 C.ar    1  UNL1        0.0203
     40 C         144.0126  135.2419  155.5839 C.ar    1  UNL1       -0.0015
     41 C         143.3250  136.5685  155.4520 C.ar    1  UNL1       -0.0069
     42 C         144.1339  137.8305  155.3985 C.3     1  UNL1        0.0323
@<TRIPOS>UNITY_ATOM_ATTR
33 1
charge -1
@<TRIPOS>BOND
     1    19    20    1
     2    20    13    1
     3    13    14   ar
     4    14    15   ar
     5    15     1    1
     6     1     2   am
     7     2     3    2
     8     2     4   am
     9     4    21    1
    10    21    22   ar
    11    22    23   ar
    12    23    24   ar
    13    24    27    1
    14    27    28   ar
    15    28    29   ar
    16    29    30   ar
    17    30    32    1
    18    32    33   ar
    19    32    34   ar
    20    30    31   ar
    21    24    25   ar
    22    25    26   ar
    23     4     5   am
    24     5     6    2
    25     5     7    1
    26     7     8    1
    27     8     9    1
    28     9    10    1
    29    10    35    1
    30    35    36    1
    31    36    37   ar
    32    37    38   ar
    33    38    39   ar
    34    39    40   ar
    35    40    41   ar
    36    41    42    1
    37    10    11    1
    38    11    12    1
    39    15    16   ar
    40    16    17   ar
    41    17    18   ar
    42    18    13   ar
    43     7     1    1
    44    41    36   ar
    45    26    21   ar
    46    12     7    1
    47    31    27   ar
