@<TRIPOS>MOLECULE
*****
 41 46 0 0 0
SMALL
GASTEIGER

@<TRIPOS>ATOM
      1 C         141.0842  140.3043  166.6093 C.3     1  UNL1        0.1272
      2 C         141.3360  141.7575  166.3359 C.3     1  UNL1        0.0342
      3 C         142.5443  142.1747  165.5511 C.3     1  UNL1        0.0197
      4 C         143.5008  141.1386  165.0397 C.3     1  UNL1        0.0701
      5 C         143.2490  139.6854  165.3130 C.3     1  UNL1        0.0197
      6 C         142.0407  139.2682  166.0978 C.3     1  UNL1        0.0342
      7 C         142.8524  140.8617  165.4650 C.3     1  UNL1        0.1566
      8 O         141.7599  140.4845  166.1747 O.3     1  UNL1       -0.3518
      9 N         139.9460  139.8014  168.8900 N.2     1  UNL1       -0.0890
     10 C         139.8758  139.8871  167.3941 C.2     1  UNL1        0.1035
     11 C         142.2328  139.0558  169.8724 C.3     1  UNL1        0.2885
     12 O         141.2246  140.1328  169.6011 O.2     1  UNL1       -0.3736
     13 C         138.5974  139.5557  166.6831 C.3     1  UNL1        0.0772
     14 C         138.6030  139.3169  165.2021 C.ar    1  UNL1        0.0318
     15 C         138.8343  137.9351  164.6662 C.ar    1  UNL1        0.1570
     16 F         139.0600  136.7922  165.6112 F       1  UNL1       -0.2028
     17 C         138.8398  137.6962  163.1854 C.ar    1  UNL1        0.1281
     18 N         138.6141  138.8391  162.2405 N.ar    1  UNL1       -0.2400
     19 C         138.3828  140.2209  162.7765 C.ar    1  UNL1        0.0990
     20 C         138.1571  141.3638  161.8315 C.ar    1  UNL1        0.0254
     21 C         137.9258  142.7455  162.3675 C.ar    1  UNL1        0.0593
     22 C         137.9202  142.9844  163.8484 C.ar    1  UNL1        0.2250
     23 N         138.1459  141.8415  164.7932 N.ar    1  UNL1       -0.2104
     24 C         138.3772  140.4598  164.2573 C.ar    1  UNL1        0.1005
     25 O         137.6889  144.3661  164.3843 O.3     1  UNL1       -0.4561
     26 C         138.6009  144.9251  165.4360 C.3     1  UNL1        0.2542
     27 N         144.7091  141.5558  164.2548 N.3     1  UNL1       -0.2926
     28 H         145.5143  141.1101  164.6948 H       1  UNL1        0.1236
     29 C         144.7930  141.2509  162.7885 C.3     1  UNL1        0.1152
     30 C         143.9895  142.0533  161.8085 C.ar    1  UNL1        0.0765
     31 C         144.2470  141.9160  160.3372 C.ar    1  UNL1        0.0193
     32 C         143.4434  142.7184  159.3570 C.ar    1  UNL1        0.0411
     33 C         142.3824  143.6580  159.8483 C.ar    1  UNL1        0.1708
     34 C         142.1249  143.7952  161.3197 C.ar    1  UNL1        0.1682
     35 N         142.9284  142.9928  162.2998 N.ar    1  UNL1       -0.2304
     36 N         141.0638  144.7347  161.8110 N.am    1  UNL1       -0.2639
     37 C         140.2602  145.5371  160.8309 C.2     1  UNL1        0.2718
     38 O         139.1992  146.4767  161.3221 O.2     1  UNL1       -0.2707
     39 C         140.5178  145.3999  159.3596 C.3     1  UNL1        0.2898
     40 O         141.5788  144.4603  158.8683 O.3     1  UNL1       -0.4628
     41 H         140.8948  144.8248  162.7767 H       1  UNL1        0.1565
@<TRIPOS>BOND
     1    11    12    1
     2    12     9    1
     3     9    10    2
     4    10    13    1
     5    13    14    1
     6    14    15   ar
     7    15    16    1
     8    15    17   ar
     9    17    18   ar
    10    18    19   ar
    11    19    20   ar
    12    20    21   ar
    13    21    22   ar
    14    22    25    1
    15    25    26    1
    16    22    23   ar
    17    23    24   ar
    18    10     1    1
    19     1     2    1
    20     2     3    1
    21     3     4    1
    22     4    27    1
    23    27    29    1
    24    29    30    1
    25    30    31   ar
    26    31    32   ar
    27    32    33   ar
    28    33    34   ar
    29    34    35   ar
    30    34    36    1
    31    36    37   am
    32    37    38    2
    33    37    39    1
    34    39    40    1
    35     4     5    1
    36     5     6    1
    37     4     7    1
    38     7     8    1
    39    24    14   ar
    40     6     1    1
    41    24    19   ar
    42     8     1    1
    43    35    30   ar
    44    40    33    1
    45    27    28    1
    46    36    41    1
@<TRIPOS>MOLECULE
*****
 41 46 0 0 0
SMALL
GASTEIGER

@<TRIPOS>ATOM
      1 C         140.4330  139.9467  160.9546 C.3     1  UNL1        0.1272
      2 C         141.1192  138.6857  161.3894 C.3     1  UNL1        0.0342
      3 C         142.5693  138.7146  161.7719 C.3     1  UNL1        0.0197
      4 C         143.3332  140.0044  161.7195 C.3     1  UNL1        0.0701
      5 C         142.6470  141.2654  161.2847 C.3     1  UNL1        0.0197
      6 C         141.1969  141.2365  160.9022 C.3     1  UNL1        0.0342
      7 C         142.5402  140.0381  161.5005 C.3     1  UNL1        0.1566
      8 O         141.2290  140.0121  161.1547 O.3     1  UNL1       -0.3518
      9 N         138.5872  139.6430  159.1516 N.2     1  UNL1       -0.0890
     10 C         138.9829  139.9178  160.5721 C.2     1  UNL1        0.1035
     11 C         139.9992  137.9928  157.7255 C.3     1  UNL1        0.2885
     12 O         139.6418  139.3970  158.1135 O.2     1  UNL1       -0.3736
     13 C         137.9284  140.1638  161.6101 C.3     1  UNL1        0.0772
     14 C         138.3237  140.4301  163.0324 C.ar    1  UNL1        0.0318
     15 C         138.4864  139.2887  163.9919 C.ar    1  UNL1        0.1570
     16 F         138.2538  137.8809  163.5291 F       1  UNL1       -0.2028
     17 C         138.8817  139.5549  165.4141 C.ar    1  UNL1        0.1281
     18 N         139.1143  140.9627  165.8769 N.ar    1  UNL1       -0.2400
     19 C         138.9516  142.1041  164.9174 C.ar    1  UNL1        0.0990
     20 C         139.1842  143.5119  165.3802 C.ar    1  UNL1        0.0254
     21 C         139.0215  144.6533  164.4207 C.ar    1  UNL1        0.0593
     22 C         138.6262  144.3870  162.9984 C.ar    1  UNL1        0.2250
     23 N         138.3936  142.9793  162.5357 N.ar    1  UNL1       -0.2104
     24 C         138.5563  141.8378  163.4952 C.ar    1  UNL1        0.1005
     25 O         138.4635  145.5285  162.0389 O.3     1  UNL1       -0.4561
     26 C         139.6567  146.3405  161.6301 C.3     1  UNL1        0.2542
     27 N         144.7834  140.0333  162.1020 N.3     1  UNL1       -0.2926
     28 H         145.2603  140.6058  161.4055 H       1  UNL1        0.1236
     29 C         145.1941  140.5558  163.4468 C.3     1  UNL1        0.1152
     30 C         144.3248  140.3103  164.6442 C.ar    1  UNL1        0.0765
     31 C         144.1732  138.9209  165.1888 C.ar    1  UNL1        0.0193
     32 C         143.3038  138.6753  166.3863 C.ar    1  UNL1        0.0411
     33 C         142.5861  139.8192  167.0392 C.ar    1  UNL1        0.1708
     34 C         142.7377  141.2087  166.4946 C.ar    1  UNL1        0.1682
     35 N         143.6070  141.4542  165.2972 N.ar    1  UNL1       -0.2304
     36 N         142.0199  142.3526  167.1476 N.am    1  UNL1       -0.2639
     37 C         141.1506  142.1071  168.3451 C.2     1  UNL1        0.2718
     38 O         140.4328  143.2510  168.9980 O.2     1  UNL1       -0.2707
     39 C         140.9990  140.7177  168.8896 C.3     1  UNL1        0.2898
     40 O         141.7167  139.5738  168.2367 O.3     1  UNL1       -0.4628
     41 H         142.1194  143.2645  166.7902 H       1  UNL1        0.1565
@<TRIPOS>BOND
     1    11    12    1
     2    12     9    1
     3     9    10    2
     4    10    13    1
     5    13    14    1
     6    14    15   ar
     7    15    16    1
     8    15    17   ar
     9    17    18   ar
    10    18    19   ar
    11    19    20   ar
    12    20    21   ar
    13    21    22   ar
    14    22    25    1
    15    25    26    1
    16    22    23   ar
    17    23    24   ar
    18    10     1    1
    19     1     2    1
    20     2     3    1
    21     3     4    1
    22     4    27    1
    23    27    29    1
    24    29    30    1
    25    30    31   ar
    26    31    32   ar
    27    32    33   ar
    28    33    34   ar
    29    34    35   ar
    30    34    36    1
    31    36    37   am
    32    37    38    2
    33    37    39    1
    34    39    40    1
    35     4     5    1
    36     5     6    1
    37     4     7    1
    38     7     8    1
    39    24    14   ar
    40     6     1    1
    41    24    19   ar
    42     8     1    1
    43    35    30   ar
    44    40    33    1
    45    27    28    1
    46    36    41    1
@<TRIPOS>MOLECULE
*****
 41 46 0 0 0
SMALL
GASTEIGER

@<TRIPOS>ATOM
      1 C         143.3268  140.2811  160.7057 C.3     1  UNL1        0.1272
      2 C         141.8271  140.2677  160.7315 C.3     1  UNL1        0.0342
      3 C         141.0991  139.1650  161.4414 C.3     1  UNL1        0.0197
      4 C         141.8707  138.0758  162.1255 C.3     1  UNL1        0.0701
      5 C         143.3705  138.0892  162.0997 C.3     1  UNL1        0.0197
      6 C         144.0985  139.1919  161.3899 C.3     1  UNL1        0.0342
      7 C         142.3137  138.6590  161.7493 C.3     1  UNL1        0.1566
      8 O         142.9721  139.6561  161.1074 O.3     1  UNL1       -0.3518
      9 N         144.4512  141.2172  158.5587 N.2     1  UNL1       -0.0890
     10 C         144.0548  141.3839  159.9958 C.2     1  UNL1        0.1035
     11 C         142.9153  139.8874  156.9392 C.3     1  UNL1        0.2885
     12 O         144.1195  139.9478  157.8316 O.2     1  UNL1       -0.3736
     13 C         144.3865  142.6532  160.7229 C.3     1  UNL1        0.0772
     14 C         143.9442  142.8412  162.1439 C.ar    1  UNL1        0.0318
     15 C         144.7846  142.3106  163.2673 C.ar    1  UNL1        0.1570
     16 F         146.0673  141.5920  162.9698 F       1  UNL1       -0.2028
     17 C         144.3423  142.4984  164.6883 C.ar    1  UNL1        0.1281
     18 N         143.0596  143.2169  164.9857 N.ar    1  UNL1       -0.2400
     19 C         142.2192  143.7475  163.8622 C.ar    1  UNL1        0.0990
     20 C         140.9365  144.4660  164.1597 C.ar    1  UNL1        0.0254
     21 C         140.0961  144.9966  163.0362 C.ar    1  UNL1        0.0593
     22 C         140.5385  144.8087  161.6152 C.ar    1  UNL1        0.2250
     23 N         141.8211  144.0902  161.3178 N.ar    1  UNL1       -0.2104
     24 C         142.6615  143.5596  162.4413 C.ar    1  UNL1        0.1005
     25 O         139.6981  145.3393  160.4918 O.3     1  UNL1       -0.4561
     26 C         140.2788  145.4625  159.1142 C.3     1  UNL1        0.2542
     27 N         141.1427  136.9730  162.8355 N.3     1  UNL1       -0.2926
     28 H         141.5488  136.0954  162.5109 H       1  UNL1        0.1236
     29 C         141.1392  136.9203  164.3345 C.3     1  UNL1        0.1152
     30 C         140.8661  138.1635  165.1281 C.ar    1  UNL1        0.0765
     31 C         139.4759  138.7233  165.1902 C.ar    1  UNL1        0.0193
     32 C         139.2027  139.9665  165.9838 C.ar    1  UNL1        0.0411
     33 C         140.3198  140.6500  166.7153 C.ar    1  UNL1        0.1708
     34 C         141.7101  140.0901  166.6531 C.ar    1  UNL1        0.1682
     35 N         141.9832  138.8469  165.8595 N.ar    1  UNL1       -0.2304
     36 N         142.8272  140.7735  167.3845 N.am    1  UNL1       -0.2639
     37 C         142.5541  142.0168  168.1781 C.2     1  UNL1        0.2718
     38 O         143.6712  142.7003  168.9095 O.2     1  UNL1       -0.2707
     39 C         141.1639  142.5766  168.2402 C.3     1  UNL1        0.2898
     40 O         140.0467  141.8932  167.5088 O.3     1  UNL1       -0.4628
     41 H         143.7397  140.4061  167.3437 H       1  UNL1        0.1565
@<TRIPOS>BOND
     1    11    12    1
     2    12     9    1
     3     9    10    2
     4    10    13    1
     5    13    14    1
     6    14    15   ar
     7    15    16    1
     8    15    17   ar
     9    17    18   ar
    10    18    19   ar
    11    19    20   ar
    12    20    21   ar
    13    21    22   ar
    14    22    25    1
    15    25    26    1
    16    22    23   ar
    17    23    24   ar
    18    10     1    1
    19     1     2    1
    20     2     3    1
    21     3     4    1
    22     4    27    1
    23    27    29    1
    24    29    30    1
    25    30    31   ar
    26    31    32   ar
    27    32    33   ar
    28    33    34   ar
    29    34    35   ar
    30    34    36    1
    31    36    37   am
    32    37    38    2
    33    37    39    1
    34    39    40    1
    35     4     5    1
    36     5     6    1
    37     4     7    1
    38     7     8    1
    39    24    14   ar
    40     6     1    1
    41    24    19   ar
    42     8     1    1
    43    35    30   ar
    44    40    33    1
    45    27    28    1
    46    36    41    1
@<TRIPOS>MOLECULE
*****
 41 46 0 0 0
SMALL
GASTEIGER

@<TRIPOS>ATOM
      1 C         141.0326  140.2166  166.5992 C.3     1  UNL1        0.1272
      2 C         141.3528  141.6473  166.2824 C.3     1  UNL1        0.0342
      3 C         142.6083  141.9872  165.5354 C.3     1  UNL1        0.0197
      4 C         143.5437  140.8964  165.1052 C.3     1  UNL1        0.0701
      5 C         143.2235  139.4656  165.4221 C.3     1  UNL1        0.0197
      6 C         141.9679  139.1257  166.1690 C.3     1  UNL1        0.0342
      7 C         142.8677  140.6612  165.5123 C.3     1  UNL1        0.1566
      8 O         141.7324  140.3538  166.1877 O.3     1  UNL1       -0.3518
      9 N         139.7743  139.8735  168.8462 N.2     1  UNL1       -0.0890
     10 C         139.7770  139.8767  167.3462 C.2     1  UNL1        0.1035
     11 C         140.9506  140.6049  171.0443 C.3     1  UNL1        0.2885
     12 O         141.0272  140.2102  169.5992 O.2     1  UNL1       -0.3736
     13 C         138.5241  139.5401  166.5932 C.3     1  UNL1        0.0772
     14 C         138.5707  139.3517  165.1058 C.ar    1  UNL1        0.0318
     15 C         138.8327  137.9917  164.5299 C.ar    1  UNL1        0.1570
     16 F         139.0481  136.8200  165.4414 F       1  UNL1       -0.2028
     17 C         138.8793  137.8033  163.0425 C.ar    1  UNL1        0.1281
     18 N         138.6640  138.9750  162.1311 N.ar    1  UNL1       -0.2400
     19 C         138.4020  140.3350  162.7070 C.ar    1  UNL1        0.0990
     20 C         138.1866  141.5067  161.7954 C.ar    1  UNL1        0.0254
     21 C         137.9247  142.8667  162.3713 C.ar    1  UNL1        0.0593
     22 C         137.8781  143.0551  163.8588 C.ar    1  UNL1        0.2250
     23 N         138.0934  141.8834  164.7702 N.ar    1  UNL1       -0.2104
     24 C         138.3554  140.5234  164.1943 C.ar    1  UNL1        0.1005
     25 O         137.6161  144.4151  164.4347 O.3     1  UNL1       -0.4561
     26 C         138.5182  144.9652  165.4995 C.3     1  UNL1        0.2542
     27 N         144.7993  141.2362  164.3582 N.3     1  UNL1       -0.2926
     28 H         145.3155  140.3647  164.2380 H       1  UNL1        0.1236
     29 C         144.7165  141.8805  163.0062 C.3     1  UNL1        0.1152
     30 C         143.7508  141.3579  161.9843 C.ar    1  UNL1        0.0765
     31 C         142.4458  142.0615  161.7570 C.ar    1  UNL1        0.0193
     32 C         141.4800  141.5389  160.7350 C.ar    1  UNL1        0.0411
     33 C         141.8194  140.3128  159.9404 C.ar    1  UNL1        0.1708
     34 C         143.1245  139.6092  160.1678 C.ar    1  UNL1        0.1682
     35 N         144.0902  140.1317  161.1897 N.ar    1  UNL1       -0.2304
     36 N         143.4639  138.3830  159.3732 N.am    1  UNL1       -0.2639
     37 C         142.4981  137.8605  158.3512 C.2     1  UNL1        0.2718
     38 O         142.8375  136.6343  157.5566 O.2     1  UNL1       -0.2707
     39 C         141.1931  138.5641  158.1239 C.3     1  UNL1        0.2898
     40 O         140.8537  139.7902  158.9185 O.3     1  UNL1       -0.4628
     41 H         144.3205  137.9212  159.5223 H       1  UNL1        0.1565
@<TRIPOS>BOND
     1    11    12    1
     2    12     9    1
     3     9    10    2
     4    10    13    1
     5    13    14    1
     6    14    15   ar
     7    15    16    1
     8    15    17   ar
     9    17    18   ar
    10    18    19   ar
    11    19    20   ar
    12    20    21   ar
    13    21    22   ar
    14    22    25    1
    15    25    26    1
    16    22    23   ar
    17    23    24   ar
    18    10     1    1
    19     1     2    1
    20     2     3    1
    21     3     4    1
    22     4    27    1
    23    27    29    1
    24    29    30    1
    25    30    31   ar
    26    31    32   ar
    27    32    33   ar
    28    33    34   ar
    29    34    35   ar
    30    34    36    1
    31    36    37   am
    32    37    38    2
    33    37    39    1
    34    39    40    1
    35     4     5    1
    36     5     6    1
    37     4     7    1
    38     7     8    1
    39    24    14   ar
    40     6     1    1
    41    24    19   ar
    42     8     1    1
    43    35    30   ar
    44    40    33    1
    45    27    28    1
    46    36    41    1
@<TRIPOS>MOLECULE
*****
 41 46 0 0 0
SMALL
GASTEIGER

@<TRIPOS>ATOM
      1 C         142.2645  142.0456  166.0378 C.3     1  UNL1        0.1272
      2 C         140.7905  142.2466  165.8459 C.3     1  UNL1        0.0342
      3 C         140.2937  143.3164  164.9193 C.3     1  UNL1        0.0197
      4 C         141.2710  144.1852  164.1845 C.3     1  UNL1        0.0701
      5 C         142.7450  143.9843  164.3764 C.3     1  UNL1        0.0197
      6 C         143.2418  142.9145  165.3031 C.3     1  UNL1        0.0342
      7 C         141.5907  143.6121  164.6817 C.3     1  UNL1        0.1566
      8 O         142.0400  142.6447  165.5196 O.3     1  UNL1       -0.3518
      9 N         142.9424  141.2723  168.4237 N.2     1  UNL1       -0.0890
     10 C         142.7612  140.9758  166.9645 C.2     1  UNL1        0.1035
     11 C         142.7067  142.9061  170.4300 C.3     1  UNL1        0.2885
     12 O         142.6268  142.6387  168.9562 O.2     1  UNL1       -0.3736
     13 C         143.0768  139.6095  166.4320 C.3     1  UNL1        0.0772
     14 C         142.9052  139.3158  164.9710 C.ar    1  UNL1        0.0318
     15 C         144.0269  139.5914  164.0140 C.ar    1  UNL1        0.1570
     16 F         145.3201  140.1605  164.5179 F       1  UNL1       -0.2028
     17 C         143.8554  139.2978  162.5530 C.ar    1  UNL1        0.1281
     18 N         142.5623  138.7287  162.0492 N.ar    1  UNL1       -0.2400
     19 C         141.4407  138.4532  163.0062 C.ar    1  UNL1        0.0990
     20 C         140.1475  137.8840  162.5023 C.ar    1  UNL1        0.0254
     21 C         139.0258  137.6085  163.4594 C.ar    1  UNL1        0.0593
     22 C         139.1973  137.9021  164.9204 C.ar    1  UNL1        0.2250
     23 N         140.4905  138.4712  165.4242 N.ar    1  UNL1       -0.2104
     24 C         141.6121  138.7468  164.4672 C.ar    1  UNL1        0.1005
     25 O         138.0757  137.6266  165.8774 O.3     1  UNL1       -0.4561
     26 C         137.7512  138.6159  166.9573 C.3     1  UNL1        0.2542
     27 N         140.7743  145.2551  163.2578 N.3     1  UNL1       -0.2926
     28 H         141.3196  146.0937  163.4570 H       1  UNL1        0.1236
     29 C         140.8282  145.0459  161.7734 C.3     1  UNL1        0.1152
     30 C         140.5553  143.6883  161.1969 C.ar    1  UNL1        0.0765
     31 C         139.1674  143.1210  161.2388 C.ar    1  UNL1        0.0193
     32 C         138.8944  141.7633  160.6623 C.ar    1  UNL1        0.0411
     33 C         140.0093  140.9731  160.0439 C.ar    1  UNL1        0.1708
     34 C         141.3973  141.5405  160.0020 C.ar    1  UNL1        0.1682
     35 N         141.6702  142.8981  160.5785 N.ar    1  UNL1       -0.2304
     36 N         142.5123  140.7503  159.3836 N.am    1  UNL1       -0.2639
     37 C         142.2393  139.3927  158.8071 C.2     1  UNL1        0.2718
     38 O         143.3542  138.6024  158.1887 O.2     1  UNL1       -0.2707
     39 C         140.8514  138.8253  158.8490 C.3     1  UNL1        0.2898
     40 O         139.7364  139.6155  159.4673 O.3     1  UNL1       -0.4628
     41 H         143.4232  141.1227  159.3561 H       1  UNL1        0.1565
@<TRIPOS>BOND
     1    11    12    1
     2    12     9    1
     3     9    10    2
     4    10    13    1
     5    13    14    1
     6    14    15   ar
     7    15    16    1
     8    15    17   ar
     9    17    18   ar
    10    18    19   ar
    11    19    20   ar
    12    20    21   ar
    13    21    22   ar
    14    22    25    1
    15    25    26    1
    16    22    23   ar
    17    23    24   ar
    18    10     1    1
    19     1     2    1
    20     2     3    1
    21     3     4    1
    22     4    27    1
    23    27    29    1
    24    29    30    1
    25    30    31   ar
    26    31    32   ar
    27    32    33   ar
    28    33    34   ar
    29    34    35   ar
    30    34    36    1
    31    36    37   am
    32    37    38    2
    33    37    39    1
    34    39    40    1
    35     4     5    1
    36     5     6    1
    37     4     7    1
    38     7     8    1
    39    24    14   ar
    40     6     1    1
    41    24    19   ar
    42     8     1    1
    43    35    30   ar
    44    40    33    1
    45    27    28    1
    46    36    41    1
@<TRIPOS>MOLECULE
*****
 41 46 0 0 0
SMALL
GASTEIGER

@<TRIPOS>ATOM
      1 C         139.4069  142.0050  160.7417 C.3     1  UNL1        0.1272
      2 C         138.0746  141.4866  161.1957 C.3     1  UNL1        0.0342
      3 C         137.9363  140.0603  161.6392 C.3     1  UNL1        0.0197
      4 C         139.1304  139.1526  161.6286 C.3     1  UNL1        0.0701
      5 C         140.4627  139.6710  161.1745 C.3     1  UNL1        0.0197
      6 C         140.6009  141.0972  160.7310 C.3     1  UNL1        0.0342
      7 C         139.2552  139.9264  161.3766 C.3     1  UNL1        0.1566
      8 O         139.3802  141.2161  160.9756 O.3     1  UNL1       -0.3518
      9 N         139.3806  143.7857  158.8500 N.2     1  UNL1       -0.0890
     10 C         139.5451  143.4313  160.2982 C.2     1  UNL1        0.1035
     11 C         137.6623  142.4691  157.4132 C.3     1  UNL1        0.2885
     12 O         139.0778  142.7138  157.8452 O.2     1  UNL1       -0.3736
     13 C         139.8479  144.5031  161.3029 C.3     1  UNL1        0.0772
     14 C         139.9103  144.1662  162.7633 C.ar    1  UNL1        0.0318
     15 C         138.6819  144.2915  163.6150 C.ar    1  UNL1        0.1570
     16 F         137.3912  144.7538  163.0064 F       1  UNL1       -0.2028
     17 C         138.7443  143.9546  165.0753 C.ar    1  UNL1        0.1281
     18 N         140.0350  143.4924  165.6839 N.ar    1  UNL1       -0.2400
     19 C         141.2633  143.3671  164.8322 C.ar    1  UNL1        0.0990
     20 C         142.5541  142.9049  165.4408 C.ar    1  UNL1        0.0254
     21 C         143.7824  142.7795  164.5891 C.ar    1  UNL1        0.0593
     22 C         143.7200  143.1165  163.1287 C.ar    1  UNL1        0.2250
     23 N         142.4293  143.5787  162.5201 N.ar    1  UNL1       -0.2104
     24 C         141.2010  143.7040  163.3719 C.ar    1  UNL1        0.1005
     25 O         144.9484  142.9912  162.2770 O.3     1  UNL1       -0.4561
     26 C         144.8267  142.5687  160.8428 C.3     1  UNL1        0.2542
     27 N         138.9922  137.7262  162.0720 N.3     1  UNL1       -0.2926
     28 H         139.7962  137.2223  161.6979 H       1  UNL1        0.1236
     29 C         138.9183  137.3992  163.5341 C.3     1  UNL1        0.1152
     30 C         139.8934  138.0180  164.4912 C.ar    1  UNL1        0.0765
     31 C         141.3348  137.6036  164.4660 C.ar    1  UNL1        0.0193
     32 C         142.3100  138.2223  165.4231 C.ar    1  UNL1        0.0411
     33 C         141.8438  139.2555  166.4056 C.ar    1  UNL1        0.1708
     34 C         140.4024  139.6699  166.4308 C.ar    1  UNL1        0.1682
     35 N         139.4272  139.0512  165.4737 N.ar    1  UNL1       -0.2304
     36 N         139.9362  140.7031  167.4133 N.am    1  UNL1       -0.2639
     37 C         140.9114  141.3218  168.3705 C.2     1  UNL1        0.2718
     38 O         140.4452  142.3550  169.3529 O.2     1  UNL1       -0.2707
     39 C         142.3528  140.9074  168.3452 C.3     1  UNL1        0.2898
     40 O         142.8190  139.8742  167.3627 O.3     1  UNL1       -0.4628
     41 H         138.9901  140.9751  167.4299 H       1  UNL1        0.1565
@<TRIPOS>BOND
     1    11    12    1
     2    12     9    1
     3     9    10    2
     4    10    13    1
     5    13    14    1
     6    14    15   ar
     7    15    16    1
     8    15    17   ar
     9    17    18   ar
    10    18    19   ar
    11    19    20   ar
    12    20    21   ar
    13    21    22   ar
    14    22    25    1
    15    25    26    1
    16    22    23   ar
    17    23    24   ar
    18    10     1    1
    19     1     2    1
    20     2     3    1
    21     3     4    1
    22     4    27    1
    23    27    29    1
    24    29    30    1
    25    30    31   ar
    26    31    32   ar
    27    32    33   ar
    28    33    34   ar
    29    34    35   ar
    30    34    36    1
    31    36    37   am
    32    37    38    2
    33    37    39    1
    34    39    40    1
    35     4     5    1
    36     5     6    1
    37     4     7    1
    38     7     8    1
    39    24    14   ar
    40     6     1    1
    41    24    19   ar
    42     8     1    1
    43    35    30   ar
    44    40    33    1
    45    27    28    1
    46    36    41    1
@<TRIPOS>MOLECULE
*****
 41 46 0 0 0
SMALL
GASTEIGER

@<TRIPOS>ATOM
      1 C         143.4036  139.7168  159.5380 C.3     1  UNL1        0.1272
      2 C         144.1655  139.2146  160.7286 C.3     1  UNL1        0.0342
      3 C         143.4989  138.3025  161.7153 C.3     1  UNL1        0.0197
      4 C         142.0705  137.8926  161.5116 C.3     1  UNL1        0.0701
      5 C         141.3086  138.3948  160.3210 C.3     1  UNL1        0.0197
      6 C         141.9752  139.3069  159.3343 C.3     1  UNL1        0.0342
      7 C         142.3932  138.3941  160.9439 C.3     1  UNL1        0.1566
      8 O         142.9959  139.2189  160.0516 O.3     1  UNL1       -0.3518
      9 N         144.3997  140.1323  157.1747 N.2     1  UNL1       -0.0890
     10 C         144.0703  140.6289  158.5512 C.2     1  UNL1        0.1035
     11 C         142.9875  138.4626  155.7719 C.3     1  UNL1        0.2885
     12 O         144.0625  138.7235  156.7850 O.2     1  UNL1       -0.3736
     13 C         144.4075  142.0375  158.9410 C.3     1  UNL1        0.0772
     14 C         143.3199  142.9786  159.3672 C.ar    1  UNL1        0.0318
     15 C         142.3733  143.5414  158.3488 C.ar    1  UNL1        0.1570
     16 F         142.5143  143.1630  156.9041 F       1  UNL1       -0.2028
     17 C         141.2858  144.4824  158.7749 C.ar    1  UNL1        0.1281
     18 N         141.1448  144.8607  160.2195 N.ar    1  UNL1       -0.2400
     19 C         142.0914  144.2979  161.2380 C.ar    1  UNL1        0.0990
     20 C         141.9504  144.6762  162.6827 C.ar    1  UNL1        0.0254
     21 C         142.8970  144.1135  163.7012 C.ar    1  UNL1        0.0593
     22 C         143.9846  143.1724  163.2749 C.ar    1  UNL1        0.2250
     23 N         144.1255  142.7941  161.8303 N.ar    1  UNL1       -0.2104
     24 C         143.1790  143.3569  160.8119 C.ar    1  UNL1        0.1005
     25 O         144.9312  142.6097  164.2934 O.3     1  UNL1       -0.4561
     26 C         145.7624  141.4062  163.9605 C.3     1  UNL1        0.2542
     27 N         141.4038  136.9805  162.4984 N.3     1  UNL1       -0.2926
     28 H         142.1379  136.4026  162.9078 H       1  UNL1        0.1236
     29 C         140.6185  137.5558  163.6396 C.3     1  UNL1        0.1152
     30 C         139.7668  138.7718  163.4263 C.ar    1  UNL1        0.0765
     31 C         138.5650  138.6982  162.5317 C.ar    1  UNL1        0.0193
     32 C         137.7132  139.9143  162.3183 C.ar    1  UNL1        0.0411
     33 C         138.0631  141.2041  162.9996 C.ar    1  UNL1        0.1708
     34 C         139.2649  141.2777  163.8943 C.ar    1  UNL1        0.1682
     35 N         140.1167  140.0616  164.1076 N.ar    1  UNL1       -0.2304
     36 N         139.6149  142.5674  164.5755 N.am    1  UNL1       -0.2639
     37 C         138.7630  143.7835  164.3622 C.2     1  UNL1        0.2718
     38 O         139.1130  145.0732  165.0435 O.2     1  UNL1       -0.2707
     39 C         137.5613  143.7099  163.4676 C.3     1  UNL1        0.2898
     40 O         137.2113  142.4201  162.7863 O.3     1  UNL1       -0.4628
     41 H         140.4037  142.6157  165.1627 H       1  UNL1        0.1565
@<TRIPOS>BOND
     1    11    12    1
     2    12     9    1
     3     9    10    2
     4    10    13    1
     5    13    14    1
     6    14    15   ar
     7    15    16    1
     8    15    17   ar
     9    17    18   ar
    10    18    19   ar
    11    19    20   ar
    12    20    21   ar
    13    21    22   ar
    14    22    25    1
    15    25    26    1
    16    22    23   ar
    17    23    24   ar
    18    10     1    1
    19     1     2    1
    20     2     3    1
    21     3     4    1
    22     4    27    1
    23    27    29    1
    24    29    30    1
    25    30    31   ar
    26    31    32   ar
    27    32    33   ar
    28    33    34   ar
    29    34    35   ar
    30    34    36    1
    31    36    37   am
    32    37    38    2
    33    37    39    1
    34    39    40    1
    35     4     5    1
    36     5     6    1
    37     4     7    1
    38     7     8    1
    39    24    14   ar
    40     6     1    1
    41    24    19   ar
    42     8     1    1
    43    35    30   ar
    44    40    33    1
    45    27    28    1
    46    36    41    1
@<TRIPOS>MOLECULE
*****
 41 46 0 0 0
SMALL
GASTEIGER

@<TRIPOS>ATOM
      1 C         141.8585  143.5242  160.9706 C.3     1  UNL1        0.1272
      2 C         142.5035  144.3113  162.0726 C.3     1  UNL1        0.0342
      3 C         141.6618  144.8992  163.1662 C.3     1  UNL1        0.0197
      4 C         140.1752  144.6999  163.1578 C.3     1  UNL1        0.0701
      5 C         139.5302  143.9128  162.0558 C.3     1  UNL1        0.0197
      6 C         140.3719  143.3249  160.9622 C.3     1  UNL1        0.0342
      7 C         140.5950  144.3587  162.5371 C.3     1  UNL1        0.1566
      8 O         141.3560  143.8271  161.5482 O.3     1  UNL1       -0.3518
      9 N         143.0460  143.7598  158.6718 N.2     1  UNL1       -0.0890
     10 C         142.7002  142.9363  159.8770 C.2     1  UNL1        0.1035
     11 C         141.2417  145.4549  157.8835 C.3     1  UNL1        0.2885
     12 O         142.5499  145.1710  158.5602 O.2     1  UNL1       -0.3736
     13 C         143.1962  141.5252  159.9886 C.3     1  UNL1        0.0772
     14 C         143.6151  140.9806  161.3220 C.ar    1  UNL1        0.0318
     15 C         144.8352  141.5244  162.0045 C.ar    1  UNL1        0.1570
     16 F         145.6363  142.6128  161.3535 F       1  UNL1       -0.2028
     17 C         145.2541  140.9799  163.3379 C.ar    1  UNL1        0.1281
     18 N         144.4530  139.8916  163.9888 N.ar    1  UNL1       -0.2400
     19 C         143.2329  139.3478  163.3064 C.ar    1  UNL1        0.0990
     20 C         142.4318  138.2594  163.9574 C.ar    1  UNL1        0.0254
     21 C         141.2118  137.7156  163.2749 C.ar    1  UNL1        0.0593
     22 C         140.7929  138.2602  161.9414 C.ar    1  UNL1        0.2250
     23 N         141.5940  139.3485  161.2905 N.ar    1  UNL1       -0.2104
     24 C         142.8140  139.8923  161.9730 C.ar    1  UNL1        0.1005
     25 O         139.5728  137.7164  161.2589 O.3     1  UNL1       -0.4561
     26 C         138.2175  138.2627  161.5980 C.3     1  UNL1        0.2542
     27 N         139.3335  145.2878  164.2515 N.3     1  UNL1       -0.2926
     28 H         138.5803  145.8048  163.7977 H       1  UNL1        0.1236
     29 C         138.6917  144.3909  165.2682 C.3     1  UNL1        0.1152
     30 C         139.3988  143.1500  165.7265 C.ar    1  UNL1        0.0765
     31 C         139.1555  141.8462  165.0259 C.ar    1  UNL1        0.0193
     32 C         139.8626  140.6052  165.4841 C.ar    1  UNL1        0.0411
     33 C         140.8130  140.6681  166.6429 C.ar    1  UNL1        0.1708
     34 C         141.0563  141.9720  167.3435 C.ar    1  UNL1        0.1682
     35 N         140.3491  143.2129  166.8853 N.ar    1  UNL1       -0.2304
     36 N         142.0066  142.0349  168.5023 N.am    1  UNL1       -0.2639
     37 C         142.7138  140.7938  168.9606 C.2     1  UNL1        0.2718
     38 O         143.6641  140.8567  170.1194 O.2     1  UNL1       -0.2707
     39 C         142.4705  139.4900  168.2600 C.3     1  UNL1        0.2898
     40 O         141.5201  139.4271  167.1012 O.3     1  UNL1       -0.4628
     41 H         142.1663  142.8906  168.9621 H       1  UNL1        0.1565
@<TRIPOS>BOND
     1    11    12    1
     2    12     9    1
     3     9    10    2
     4    10    13    1
     5    13    14    1
     6    14    15   ar
     7    15    16    1
     8    15    17   ar
     9    17    18   ar
    10    18    19   ar
    11    19    20   ar
    12    20    21   ar
    13    21    22   ar
    14    22    25    1
    15    25    26    1
    16    22    23   ar
    17    23    24   ar
    18    10     1    1
    19     1     2    1
    20     2     3    1
    21     3     4    1
    22     4    27    1
    23    27    29    1
    24    29    30    1
    25    30    31   ar
    26    31    32   ar
    27    32    33   ar
    28    33    34   ar
    29    34    35   ar
    30    34    36    1
    31    36    37   am
    32    37    38    2
    33    37    39    1
    34    39    40    1
    35     4     5    1
    36     5     6    1
    37     4     7    1
    38     7     8    1
    39    24    14   ar
    40     6     1    1
    41    24    19   ar
    42     8     1    1
    43    35    30   ar
    44    40    33    1
    45    27    28    1
    46    36    41    1
@<TRIPOS>MOLECULE
*****
 41 46 0 0 0
SMALL
GASTEIGER

@<TRIPOS>ATOM
      1 C         138.4468  140.8913  160.9532 C.3     1  UNL1        0.1272
      2 C         139.4097  142.0048  160.6649 C.3     1  UNL1        0.0342
      3 C         139.4342  143.2212  161.5422 C.3     1  UNL1        0.0197
      4 C         138.4958  143.3241  162.7078 C.3     1  UNL1        0.0701
      5 C         137.5329  142.2107  162.9961 C.3     1  UNL1        0.0197
      6 C         137.5084  140.9943  162.1188 C.3     1  UNL1        0.0342
      7 C         138.4454  142.6381  162.2554 C.3     1  UNL1        0.1566
      8 O         138.4233  141.5381  161.4621 O.3     1  UNL1       -0.3518
      9 N         137.9791  139.7892  158.6474 N.2     1  UNL1       -0.0890
     10 C         138.4224  139.6749  160.0758 C.2     1  UNL1        0.1035
     11 C         138.4023  141.8008  157.0584 C.3     1  UNL1        0.2885
     12 O         137.5601  141.1200  158.0964 O.2     1  UNL1       -0.3736
     13 C         138.8414  138.3442  160.6268 C.3     1  UNL1        0.0772
     14 C         139.9355  138.2669  161.6501 C.ar    1  UNL1        0.0318
     15 C         139.5986  138.0239  163.0914 C.ar    1  UNL1        0.1570
     16 F         138.1676  137.8582  163.5095 F       1  UNL1       -0.2028
     17 C         140.6927  137.9466  164.1146 C.ar    1  UNL1        0.1281
     18 N         142.1236  138.1124  163.6965 N.ar    1  UNL1       -0.2400
     19 C         142.4605  138.3554  162.2552 C.ar    1  UNL1        0.0990
     20 C         143.8916  138.5212  161.8371 C.ar    1  UNL1        0.0254
     21 C         144.2284  138.7642  160.3957 C.ar    1  UNL1        0.0593
     22 C         143.1343  138.8414  159.3725 C.ar    1  UNL1        0.2250
     23 N         141.7033  138.6757  159.7906 N.ar    1  UNL1       -0.2104
     24 C         141.3665  138.4327  161.2320 C.ar    1  UNL1        0.1005
     25 O         143.4712  139.0845  157.9312 O.3     1  UNL1       -0.4561
     26 C         142.4194  138.9115  156.8757 C.3     1  UNL1        0.2542
     27 N         138.5202  144.5406  163.5852 N.3     1  UNL1       -0.2926
     28 H         137.6180  144.5797  164.0595 H       1  UNL1        0.1236
     29 C         139.5728  144.6801  164.6447 C.3     1  UNL1        0.1152
     30 C         140.9841  144.2595  164.3597 C.ar    1  UNL1        0.0765
     31 C         141.9436  145.2280  163.7343 C.ar    1  UNL1        0.0193
     32 C         143.3550  144.8074  163.4493 C.ar    1  UNL1        0.0411
     33 C         143.8068  143.4182  163.7898 C.ar    1  UNL1        0.1708
     34 C         142.8472  142.4496  164.4153 C.ar    1  UNL1        0.1682
     35 N         141.4359  142.8702  164.7002 N.ar    1  UNL1       -0.2304
     36 N         143.2990  141.0604  164.7558 N.am    1  UNL1       -0.2639
     37 C         144.7104  140.6397  164.4708 C.2     1  UNL1        0.2718
     38 O         145.1622  139.2505  164.8113 O.2     1  UNL1       -0.2707
     39 C         145.6699  141.6083  163.8453 C.3     1  UNL1        0.2898
     40 O         145.2181  142.9975  163.5048 O.3     1  UNL1       -0.4628
     41 H         142.6693  140.4246  165.1663 H       1  UNL1        0.1565
@<TRIPOS>BOND
     1    11    12    1
     2    12     9    1
     3     9    10    2
     4    10    13    1
     5    13    14    1
     6    14    15   ar
     7    15    16    1
     8    15    17   ar
     9    17    18   ar
    10    18    19   ar
    11    19    20   ar
    12    20    21   ar
    13    21    22   ar
    14    22    25    1
    15    25    26    1
    16    22    23   ar
    17    23    24   ar
    18    10     1    1
    19     1     2    1
    20     2     3    1
    21     3     4    1
    22     4    27    1
    23    27    29    1
    24    29    30    1
    25    30    31   ar
    26    31    32   ar
    27    32    33   ar
    28    33    34   ar
    29    34    35   ar
    30    34    36    1
    31    36    37   am
    32    37    38    2
    33    37    39    1
    34    39    40    1
    35     4     5    1
    36     5     6    1
    37     4     7    1
    38     7     8    1
    39    24    14   ar
    40     6     1    1
    41    24    19   ar
    42     8     1    1
    43    35    30   ar
    44    40    33    1
    45    27    28    1
    46    36    41    1
