@<TRIPOS>MOLECULE
*****
 32 36 0 0 0
SMALL
GASTEIGER

@<TRIPOS>ATOM
      1 C         140.5753  138.4966  161.2769 C.ar    1  UNL1       -0.0002
      2 C         142.0367  138.2159  161.0883 C.ar    1  UNL1        0.0001
      3 C         142.6123  138.1342  159.7056 C.ar    1  UNL1        0.0042
      4 C         141.7266  138.3330  158.5115 C.ar    1  UNL1        0.0497
      5 C         140.2652  138.6136  158.7001 C.ar    1  UNL1       -0.0161
      6 C         139.6896  138.6954  160.0828 C.ar    1  UNL1       -0.0041
      7 C         139.3795  138.8124  157.5059 C.3     1  UNL1        0.0480
      8 C         139.9551  138.7307  156.1232 C.3     1  UNL1        0.0984
      9 N         141.4166  138.4500  155.9346 N.am    1  UNL1       -0.2743
     10 C         142.3023  138.2512  157.1288 C.2     1  UNL1        0.2488
     11 O         143.7637  137.9706  156.9402 O.2     1  UNL1       -0.2699
     12 C         138.8482  138.7419  165.4251 C.ar    1  UNL1        0.0810
     13 C         139.6951  137.5674  165.0335 C.ar    1  UNL1        0.0068
     14 C         140.2708  137.4856  163.6508 C.ar    1  UNL1        0.0003
     15 C         139.9996  138.5783  162.6597 C.ar    1  UNL1        0.0022
     16 C         139.1527  139.7528  163.0512 C.ar    1  UNL1        0.0298
     17 C         138.5769  139.8346  164.4339 C.ar    1  UNL1        0.1445
     18 F         137.7300  141.0091  164.8255 F       1  UNL1       -0.2040
     19 O         137.0371  138.0460  167.1531 O.2     1  UNL1       -0.2698
     20 C         138.2725  138.8236  166.8078 C.2     1  UNL1        0.2512
     21 N         138.9322  139.6830  167.8452 N.am    1  UNL1       -0.2760
     22 C         138.4740  139.8631  169.2621 C.3     1  UNL1        0.0938
     23 C         139.4245  140.8045  169.9405 C.3     1  UNL1        0.0233
     24 C         140.4702  141.2063  168.9428 C.3     1  UNL1        0.0233
     25 C         140.1659  140.5131  167.6479 C.3     1  UNL1        0.0938
     26 C         141.9922  138.3683  154.5519 C.3     1  UNL1        0.1110
     27 C         141.9384  137.0759  153.7923 C.3     1  UNL1        0.0939
     28 N         142.1807  135.7775  154.5033 N.3     1  UNL1       -0.2712
     29 C         143.5103  135.2618  154.9685 C.3     1  UNL1        0.0722
     30 C         143.2873  133.9323  155.6266 C.3     1  UNL1        0.0188
     31 C         141.8200  133.6265  155.5680 C.3     1  UNL1        0.0188
     32 C         141.1361  134.7668  154.8738 C.3     1  UNL1        0.0722
@<TRIPOS>BOND
     1    19    20    2
     2    20    12    1
     3    12    13   ar
     4    13    14   ar
     5    14    15   ar
     6    15     1    1
     7     1     2   ar
     8     2     3   ar
     9     3     4   ar
    10     4     5   ar
    11     5     6   ar
    12     5     7    1
    13     7     8    1
    14     8     9    1
    15     9    26    1
    16    26    27    1
    17    27    28    1
    18    28    29    1
    19    29    30    1
    20    30    31    1
    21    31    32    1
    22     9    10   am
    23    10    11    2
    24    15    16   ar
    25    16    17   ar
    26    17    18    1
    27    20    21   am
    28    21    22    1
    29    22    23    1
    30    23    24    1
    31    24    25    1
    32    17    12   ar
    33    25    21    1
    34     6     1   ar
    35    32    28    1
    36    10     4    1
@<TRIPOS>MOLECULE
*****
 32 36 0 0 0
SMALL
GASTEIGER

@<TRIPOS>ATOM
      1 C         140.0095  139.1831  162.4028 C.ar    1  UNL1       -0.0002
      2 C         138.8051  139.4211  161.5411 C.ar    1  UNL1        0.0001
      3 C         138.8758  139.1626  160.0653 C.ar    1  UNL1        0.0042
      4 C         140.1511  138.6661  159.4511 C.ar    1  UNL1        0.0497
      5 C         141.3556  138.4281  160.3128 C.ar    1  UNL1       -0.0161
      6 C         141.2848  138.6866  161.7886 C.ar    1  UNL1       -0.0041
      7 C         142.6309  137.9316  159.6986 C.3     1  UNL1        0.0480
      8 C         142.7016  137.6731  158.2228 C.3     1  UNL1        0.0984
      9 N         141.4971  137.9111  157.3610 N.am    1  UNL1       -0.2743
     10 C         140.2219  138.4076  157.9752 C.2     1  UNL1        0.2488
     11 O         139.0174  138.6456  157.1135 O.2     1  UNL1       -0.2699
     12 C         139.7973  139.9585  166.8305 C.ar    1  UNL1        0.0810
     13 C         138.6497  140.3455  165.9453 C.ar    1  UNL1        0.0068
     14 C         138.7204  140.0870  164.4695 C.ar    1  UNL1        0.0003
     15 C         139.9388  139.4416  163.8787 C.ar    1  UNL1        0.0022
     16 C         141.0864  139.0546  164.7637 C.ar    1  UNL1        0.0298
     17 C         141.0156  139.3131  166.2397 C.ar    1  UNL1        0.1445
     18 F         142.1632  138.9262  167.1247 F       1  UNL1       -0.2040
     19 O         138.6704  139.5479  169.1351 O.2     1  UNL1       -0.2698
     20 C         139.7265  140.2170  168.3063 C.2     1  UNL1        0.2512
     21 N         140.7118  141.1447  168.9533 N.am    1  UNL1       -0.2760
     22 C         140.7646  141.4981  170.4101 C.3     1  UNL1        0.0938
     23 C         141.9027  142.4537  170.6142 C.3     1  UNL1        0.0233
     24 C         142.5533  142.6908  169.2836 C.3     1  UNL1        0.0233
     25 C         141.8172  141.8818  168.2571 C.3     1  UNL1        0.0938
     26 C         141.5679  137.6526  155.8852 C.3     1  UNL1        0.1110
     27 C         142.5644  136.6715  155.3426 C.3     1  UNL1        0.0939
     28 N         142.3777  135.2026  155.5824 N.3     1  UNL1       -0.2712
     29 C         143.2000  134.3477  156.5005 C.3     1  UNL1        0.0722
     30 C         142.6664  132.9474  156.4318 C.3     1  UNL1        0.0188
     31 C         141.5144  132.9370  155.4711 C.3     1  UNL1        0.0188
     32 C         141.3360  134.3308  154.9462 C.3     1  UNL1        0.0722
@<TRIPOS>BOND
     1    19    20    2
     2    20    12    1
     3    12    13   ar
     4    13    14   ar
     5    14    15   ar
     6    15     1    1
     7     1     2   ar
     8     2     3   ar
     9     3     4   ar
    10     4     5   ar
    11     5     6   ar
    12     5     7    1
    13     7     8    1
    14     8     9    1
    15     9    26    1
    16    26    27    1
    17    27    28    1
    18    28    29    1
    19    29    30    1
    20    30    31    1
    21    31    32    1
    22     9    10   am
    23    10    11    2
    24    15    16   ar
    25    16    17   ar
    26    17    18    1
    27    20    21   am
    28    21    22    1
    29    22    23    1
    30    23    24    1
    31    24    25    1
    32    17    12   ar
    33    25    21    1
    34     6     1   ar
    35    32    28    1
    36    10     4    1
@<TRIPOS>MOLECULE
*****
 32 36 0 0 0
SMALL
GASTEIGER

@<TRIPOS>ATOM
      1 C         142.6731  140.2278  162.4923 C.ar    1  UNL1       -0.0002
      2 C         143.9286  140.2185  161.6716 C.ar    1  UNL1        0.0001
      3 C         143.8899  139.7501  160.2472 C.ar    1  UNL1        0.0042
      4 C         142.5958  139.2911  159.6434 C.ar    1  UNL1        0.0497
      5 C         141.3403  139.3004  160.4641 C.ar    1  UNL1       -0.0161
      6 C         141.3789  139.7688  161.8886 C.ar    1  UNL1       -0.0041
      7 C         140.0462  138.8413  159.8604 C.3     1  UNL1        0.0480
      8 C         140.0076  138.3729  158.4360 C.3     1  UNL1        0.0984
      9 N         141.2631  138.3636  157.6152 N.am    1  UNL1       -0.2743
     10 C         142.5573  138.8227  158.2189 C.2     1  UNL1        0.2488
     11 O         143.8128  138.8134  157.3982 O.2     1  UNL1       -0.2699
     12 C         142.7888  141.6331  166.7658 C.ar    1  UNL1        0.0810
     13 C         142.6135  142.6252  165.6545 C.ar    1  UNL1        0.0068
     14 C         142.5750  142.1568  164.2300 C.ar    1  UNL1        0.0003
     15 C         142.7116  140.6962  163.9168 C.ar    1  UNL1        0.0022
     16 C         142.8869  139.7041  165.0281 C.ar    1  UNL1        0.0298
     17 C         142.9254  140.1725  166.4526 C.ar    1  UNL1        0.1445
     18 F         143.1006  139.1804  167.5639 F       1  UNL1       -0.2040
     19 O         144.0490  142.7922  168.7198 O.2     1  UNL1       -0.2698
     20 C         142.8273  142.1015  168.1902 C.2     1  UNL1        0.2512
     21 N         141.6442  141.8792  169.0851 N.am    1  UNL1       -0.2760
     22 C         141.5374  142.2900  170.5237 C.3     1  UNL1        0.0938
     23 C         140.1874  141.8719  171.0262 C.3     1  UNL1        0.0233
     24 C         139.4597  141.2026  169.8980 C.3     1  UNL1        0.0233
     25 C         140.3601  141.2072  168.6983 C.3     1  UNL1        0.0938
     26 C         141.2245  137.8952  156.1907 C.3     1  UNL1        0.1110
     27 C         140.7909  136.4948  155.8732 C.3     1  UNL1        0.0939
     28 N         141.7673  135.3622  155.9919 N.3     1  UNL1       -0.2712
     29 C         143.0753  135.3991  156.7252 C.3     1  UNL1        0.0722
     30 C         143.7235  134.0536  156.5847 C.3     1  UNL1        0.0188
     31 C         142.8160  133.1853  155.7646 C.3     1  UNL1        0.0188
     32 C         141.6070  133.9941  155.3982 C.3     1  UNL1        0.0722
@<TRIPOS>BOND
     1    19    20    2
     2    20    12    1
     3    12    13   ar
     4    13    14   ar
     5    14    15   ar
     6    15     1    1
     7     1     2   ar
     8     2     3   ar
     9     3     4   ar
    10     4     5   ar
    11     5     6   ar
    12     5     7    1
    13     7     8    1
    14     8     9    1
    15     9    26    1
    16    26    27    1
    17    27    28    1
    18    28    29    1
    19    29    30    1
    20    30    31    1
    21    31    32    1
    22     9    10   am
    23    10    11    2
    24    15    16   ar
    25    16    17   ar
    26    17    18    1
    27    20    21   am
    28    21    22    1
    29    22    23    1
    30    23    24    1
    31    24    25    1
    32    17    12   ar
    33    25    21    1
    34     6     1   ar
    35    32    28    1
    36    10     4    1
@<TRIPOS>MOLECULE
*****
 32 36 0 0 0
SMALL
GASTEIGER

@<TRIPOS>ATOM
      1 C         138.8359  139.6249  161.0580 C.ar    1  UNL1       -0.0002
      2 C         139.4104  138.4851  160.2701 C.ar    1  UNL1        0.0001
      3 C         139.5464  138.5965  158.7805 C.ar    1  UNL1        0.0042
      4 C         139.1078  139.8476  158.0787 C.ar    1  UNL1        0.0497
      5 C         138.5333  140.9873  158.8666 C.ar    1  UNL1       -0.0161
      6 C         138.3973  140.8760  160.3563 C.ar    1  UNL1       -0.0041
      7 C         138.0947  142.2384  158.1649 C.3     1  UNL1        0.0480
      8 C         138.2307  142.3497  156.6752 C.3     1  UNL1        0.0984
      9 N         138.8052  141.2099  155.8873 N.am    1  UNL1       -0.2743
     10 C         139.2438  139.9589  156.5890 C.2     1  UNL1        0.2488
     11 O         139.8184  138.8191  155.8011 O.2     1  UNL1       -0.2699
     12 C         138.4278  139.2911  165.5271 C.ar    1  UNL1        0.0810
     13 C         138.0645  140.5710  164.8343 C.ar    1  UNL1        0.0068
     14 C         138.2005  140.6822  163.3446 C.ar    1  UNL1        0.0003
     15 C         138.6999  139.5136  162.5477 C.ar    1  UNL1        0.0022
     16 C         139.0632  138.2338  163.2405 C.ar    1  UNL1        0.0298
     17 C         138.9272  138.1225  164.7302 C.ar    1  UNL1        0.1445
     18 F         139.2905  136.8426  165.4229 F       1  UNL1       -0.2040
     19 O         137.3290  138.1947  167.6105 O.2     1  UNL1       -0.2698
     20 C         138.2918  139.1798  167.0167 C.2     1  UNL1        0.2512
     21 N         139.1187  140.0536  167.9126 N.am    1  UNL1       -0.2760
     22 C         139.0914  140.0552  169.4124 C.3     1  UNL1        0.0938
     23 C         140.0739  141.0819  169.8928 C.3     1  UNL1        0.0233
     24 C         140.7083  141.7148  168.6899 C.3     1  UNL1        0.0233
     25 C         140.1180  141.0794  167.4661 C.3     1  UNL1        0.0938
     26 C         138.9412  141.3213  154.3976 C.3     1  UNL1        0.1110
     27 C         137.8723  140.7666  153.5034 C.3     1  UNL1        0.0939
     28 N         136.4627  140.6494  154.0030 N.3     1  UNL1       -0.2712
     29 C         135.8719  139.4626  154.7047 C.3     1  UNL1        0.0722
     30 C         134.4406  139.7781  155.0240 C.3     1  UNL1        0.0188
     31 C         134.1469  141.1599  154.5196 C.3     1  UNL1        0.0188
     32 C         135.3966  141.6984  153.8885 C.3     1  UNL1        0.0722
@<TRIPOS>BOND
     1    19    20    2
     2    20    12    1
     3    12    13   ar
     4    13    14   ar
     5    14    15   ar
     6    15     1    1
     7     1     2   ar
     8     2     3   ar
     9     3     4   ar
    10     4     5   ar
    11     5     6   ar
    12     5     7    1
    13     7     8    1
    14     8     9    1
    15     9    26    1
    16    26    27    1
    17    27    28    1
    18    28    29    1
    19    29    30    1
    20    30    31    1
    21    31    32    1
    22     9    10   am
    23    10    11    2
    24    15    16   ar
    25    16    17   ar
    26    17    18    1
    27    20    21   am
    28    21    22    1
    29    22    23    1
    30    23    24    1
    31    24    25    1
    32    17    12   ar
    33    25    21    1
    34     6     1   ar
    35    32    28    1
    36    10     4    1
@<TRIPOS>MOLECULE
*****
 32 36 0 0 0
SMALL
GASTEIGER

@<TRIPOS>ATOM
      1 C         142.6904  142.3142  162.3186 C.ar    1  UNL1       -0.0002
      2 C         143.6211  141.6263  161.3645 C.ar    1  UNL1        0.0001
      3 C         143.6990  142.0775  159.9361 C.ar    1  UNL1        0.0042
      4 C         142.8461  143.2167  159.4619 C.ar    1  UNL1        0.0497
      5 C         141.9154  143.9046  160.4160 C.ar    1  UNL1       -0.0161
      6 C         141.8375  143.4534  161.8444 C.ar    1  UNL1       -0.0041
      7 C         141.0625  145.0438  159.9418 C.3     1  UNL1        0.0480
      8 C         141.1404  145.4950  158.5134 C.3     1  UNL1        0.0984
      9 N         142.0711  144.8070  157.5592 N.am    1  UNL1       -0.2743
     10 C         142.9240  143.6679  158.0334 C.2     1  UNL1        0.2488
     11 O         143.8547  142.9799  157.0793 O.2     1  UNL1       -0.2699
     12 C         142.4567  140.9605  166.6039 C.ar    1  UNL1        0.0810
     13 C         141.7148  140.2091  165.5384 C.ar    1  UNL1        0.0068
     14 C         141.7927  140.6604  164.1101 C.ar    1  UNL1        0.0003
     15 C         142.6125  141.8630  163.7471 C.ar    1  UNL1        0.0022
     16 C         143.3544  142.6143  164.8125 C.ar    1  UNL1        0.0298
     17 C         143.2765  142.1631  166.2409 C.ar    1  UNL1        0.1445
     18 F         144.0184  142.9144  167.3063 F       1  UNL1       -0.2040
     19 O         143.0611  139.2427  168.4570 O.2     1  UNL1       -0.2698
     20 C         142.3788  140.5093  168.0323 C.2     1  UNL1        0.2512
     21 N         141.6186  141.3246  169.0359 N.am    1  UNL1       -0.2760
     22 C         141.4541  141.0014  170.4914 C.3     1  UNL1        0.0938
     23 C         140.6232  142.0833  171.1153 C.3     1  UNL1        0.0233
     24 C         140.2743  143.0751  170.0454 C.3     1  UNL1        0.0233
     25 C         140.8895  142.6061  168.7603 C.3     1  UNL1        0.0938
     26 C         142.1490  145.2583  156.1308 C.3     1  UNL1        0.1110
     27 C         140.8995  145.3593  155.3071 C.3     1  UNL1        0.0939
     28 N         140.2572  146.6957  155.0795 N.3     1  UNL1       -0.2712
     29 C         140.5309  147.6213  153.9313 C.3     1  UNL1        0.0722
     30 C         139.6713  148.8387  154.1023 C.3     1  UNL1        0.0188
     31 C         138.8665  148.6654  155.3562 C.3     1  UNL1        0.0188
     32 C         139.2286  147.3410  155.9601 C.3     1  UNL1        0.0722
@<TRIPOS>BOND
     1    19    20    2
     2    20    12    1
     3    12    13   ar
     4    13    14   ar
     5    14    15   ar
     6    15     1    1
     7     1     2   ar
     8     2     3   ar
     9     3     4   ar
    10     4     5   ar
    11     5     6   ar
    12     5     7    1
    13     7     8    1
    14     8     9    1
    15     9    26    1
    16    26    27    1
    17    27    28    1
    18    28    29    1
    19    29    30    1
    20    30    31    1
    21    31    32    1
    22     9    10   am
    23    10    11    2
    24    15    16   ar
    25    16    17   ar
    26    17    18    1
    27    20    21   am
    28    21    22    1
    29    22    23    1
    30    23    24    1
    31    24    25    1
    32    17    12   ar
    33    25    21    1
    34     6     1   ar
    35    32    28    1
    36    10     4    1
@<TRIPOS>MOLECULE
*****
 32 36 0 0 0
SMALL
GASTEIGER

@<TRIPOS>ATOM
      1 C         143.2574  140.0889  162.4502 C.ar    1  UNL1       -0.0002
      2 C         143.0005  138.8380  161.6634 C.ar    1  UNL1        0.0001
      3 C         143.2136  138.8288  160.1787 C.ar    1  UNL1        0.0042
      4 C         143.6834  140.0706  159.4808 C.ar    1  UNL1        0.0497
      5 C         143.9403  141.3216  160.2676 C.ar    1  UNL1       -0.0161
      6 C         143.7272  141.3307  161.7523 C.ar    1  UNL1       -0.0041
      7 C         144.4101  142.5634  159.5696 C.3     1  UNL1        0.0480
      8 C         144.6232  142.5543  158.0849 C.3     1  UNL1        0.0984
      9 N         144.3663  141.3033  157.2980 N.am    1  UNL1       -0.2743
     10 C         143.8965  140.0615  157.9960 C.2     1  UNL1        0.2488
     11 O         143.6396  138.8105  157.2092 O.2     1  UNL1       -0.2699
     12 C         142.6182  140.1164  166.9046 C.ar    1  UNL1        0.0810
     13 C         142.1548  138.9469  166.0876 C.ar    1  UNL1        0.0068
     14 C         142.3679  138.9377  164.6029 C.ar    1  UNL1        0.0003
     15 C         143.0443  140.0981  163.9351 C.ar    1  UNL1        0.0022
     16 C         143.5077  141.2676  164.7520 C.ar    1  UNL1        0.0298
     17 C         143.2947  141.2768  166.2368 C.ar    1  UNL1        0.1445
     18 F         143.7581  142.4463  167.0538 F       1  UNL1       -0.2040
     19 O         143.0003  139.0422  169.2391 O.2     1  UNL1       -0.2698
     20 C         142.4052  140.1256  168.3893 C.2     1  UNL1        0.2512
     21 N         141.5971  141.2181  169.0243 N.am    1  UNL1       -0.2760
     22 C         141.3005  141.3585  170.4880 C.3     1  UNL1        0.0938
     23 C         140.4637  142.5892  170.6754 C.3     1  UNL1        0.0233
     24 C         140.2431  143.2095  169.3275 C.3     1  UNL1        0.0233
     25 C         140.9436  142.3621  168.3071 C.3     1  UNL1        0.0938
     26 C         144.5794  141.2941  155.8133 C.3     1  UNL1        0.1110
     27 C         145.4049  142.3672  155.1674 C.3     1  UNL1        0.0939
     28 N         146.8729  142.1529  154.9460 N.3     1  UNL1       -0.2712
     29 C         147.9260  142.0941  156.0127 C.3     1  UNL1        0.0722
     30 C         149.2496  141.8647  155.3450 C.3     1  UNL1        0.0188
     31 C         149.0144  141.7819  153.8659 C.3     1  UNL1        0.0188
     32 C         147.5456  141.9600  153.6193 C.3     1  UNL1        0.0722
@<TRIPOS>BOND
     1    19    20    2
     2    20    12    1
     3    12    13   ar
     4    13    14   ar
     5    14    15   ar
     6    15     1    1
     7     1     2   ar
     8     2     3   ar
     9     3     4   ar
    10     4     5   ar
    11     5     6   ar
    12     5     7    1
    13     7     8    1
    14     8     9    1
    15     9    26    1
    16    26    27    1
    17    27    28    1
    18    28    29    1
    19    29    30    1
    20    30    31    1
    21    31    32    1
    22     9    10   am
    23    10    11    2
    24    15    16   ar
    25    16    17   ar
    26    17    18    1
    27    20    21   am
    28    21    22    1
    29    22    23    1
    30    23    24    1
    31    24    25    1
    32    17    12   ar
    33    25    21    1
    34     6     1   ar
    35    32    28    1
    36    10     4    1
@<TRIPOS>MOLECULE
*****
 32 36 0 0 0
SMALL
GASTEIGER

@<TRIPOS>ATOM
      1 C         139.4558  142.1128  162.0934 C.ar    1  UNL1       -0.0002
      2 C         138.6084  141.4340  161.0584 C.ar    1  UNL1        0.0001
      3 C         138.5708  141.9631  159.6554 C.ar    1  UNL1        0.0042
      4 C         139.3806  143.1709  159.2873 C.ar    1  UNL1        0.0497
      5 C         140.2280  143.8497  160.3223 C.ar    1  UNL1       -0.0161
      6 C         140.2656  143.3206  161.7253 C.ar    1  UNL1       -0.0041
      7 C         141.0377  145.0575  159.9542 C.3     1  UNL1        0.0480
      8 C         141.0001  145.5866  158.5511 C.3     1  UNL1        0.0984
      9 N         140.1527  144.9078  157.5161 N.am    1  UNL1       -0.2743
     10 C         139.3429  143.7000  157.8842 C.2     1  UNL1        0.2488
     11 O         138.4955  143.0213  156.8492 O.2     1  UNL1       -0.2699
     12 C         139.5688  140.5256  166.3028 C.ar    1  UNL1        0.0810
     13 C         139.6625  142.0021  166.0551 C.ar    1  UNL1        0.0068
     14 C         139.6248  142.5311  164.6520 C.ar    1  UNL1        0.0003
     15 C         139.4935  141.5837  163.4965 C.ar    1  UNL1        0.0022
     16 C         139.3999  140.1073  163.7441 C.ar    1  UNL1        0.0298
     17 C         139.4375  139.5782  165.1473 C.ar    1  UNL1        0.1445
     18 F         139.3439  138.1018  165.3949 F       1  UNL1       -0.2040
     19 O         138.4284  139.2501  168.2578 O.2     1  UNL1       -0.2698
     20 C         139.6065  139.9966  167.7059 C.2     1  UNL1        0.2512
     21 N         140.8223  140.2141  168.5570 N.am    1  UNL1       -0.2760
     22 C         141.0043  139.7462  169.9704 C.3     1  UNL1        0.0938
     23 C         142.3641  140.1806  170.4311 C.3     1  UNL1        0.0233
     24 C         143.0226  140.9171  169.3023 C.3     1  UNL1        0.0233
     25 C         142.0697  140.9378  168.1441 C.3     1  UNL1        0.0938
     26 C         140.1150  145.4369  156.1130 C.3     1  UNL1        0.1110
     27 C         138.9775  146.3088  155.6705 C.3     1  UNL1        0.0939
     28 N         139.2486  147.6908  155.1541 N.3     1  UNL1       -0.2712
     29 C         140.1323  148.0407  153.9936 C.3     1  UNL1        0.0722
     30 C         140.1135  149.5317  153.8298 C.3     1  UNL1        0.0188
     31 C         139.2182  150.1031  154.8891 C.3     1  UNL1        0.0188
     32 C         138.6837  148.9654  155.7075 C.3     1  UNL1        0.0722
@<TRIPOS>BOND
     1    19    20    2
     2    20    12    1
     3    12    13   ar
     4    13    14   ar
     5    14    15   ar
     6    15     1    1
     7     1     2   ar
     8     2     3   ar
     9     3     4   ar
    10     4     5   ar
    11     5     6   ar
    12     5     7    1
    13     7     8    1
    14     8     9    1
    15     9    26    1
    16    26    27    1
    17    27    28    1
    18    28    29    1
    19    29    30    1
    20    30    31    1
    21    31    32    1
    22     9    10   am
    23    10    11    2
    24    15    16   ar
    25    16    17   ar
    26    17    18    1
    27    20    21   am
    28    21    22    1
    29    22    23    1
    30    23    24    1
    31    24    25    1
    32    17    12   ar
    33    25    21    1
    34     6     1   ar
    35    32    28    1
    36    10     4    1
@<TRIPOS>MOLECULE
*****
 32 36 0 0 0
SMALL
GASTEIGER

@<TRIPOS>ATOM
      1 C         142.4870  139.9152  161.9208 C.ar    1  UNL1       -0.0002
      2 C         143.7683  139.8917  161.1414 C.ar    1  UNL1        0.0001
      3 C         143.7719  139.4177  159.7183 C.ar    1  UNL1        0.0042
      4 C         142.4941  138.9673  159.0746 C.ar    1  UNL1        0.0497
      5 C         141.2127  138.9909  159.8540 C.ar    1  UNL1       -0.0161
      6 C         141.2092  139.4648  161.2771 C.ar    1  UNL1       -0.0041
      7 C         139.9350  138.5405  159.2103 C.3     1  UNL1        0.0480
      8 C         139.9385  138.0665  157.7871 C.3     1  UNL1        0.0984
      9 N         141.2199  138.0429  157.0077 N.am    1  UNL1       -0.2743
     10 C         142.4977  138.4933  157.6514 C.2     1  UNL1        0.2488
     11 O         143.7791  138.4698  156.8720 O.2     1  UNL1       -0.2699
     12 C         142.4761  141.3371  166.1903 C.ar    1  UNL1        0.0810
     13 C         143.1814  140.0645  165.8254 C.ar    1  UNL1        0.0068
     14 C         143.1850  139.5906  164.4022 C.ar    1  UNL1        0.0003
     15 C         142.4834  140.3892  163.3440 C.ar    1  UNL1        0.0022
     16 C         141.7781  141.6618  163.7089 C.ar    1  UNL1        0.0298
     17 C         141.7745  142.1357  165.1321 C.ar    1  UNL1        0.1445
     18 F         141.0693  143.4083  165.4970 F       1  UNL1       -0.2040
     19 O         143.5891  142.6759  168.1188 O.2     1  UNL1       -0.2698
     20 C         142.4725  141.8110  167.6135 C.2     1  UNL1        0.2512
     21 N         141.3524  141.4200  168.5313 N.am    1  UNL1       -0.2760
     22 C         141.2139  141.8156  169.9715 C.3     1  UNL1        0.0938
     23 C         139.9500  141.2049  170.5004 C.3     1  UNL1        0.0233
     24 C         139.3074  140.4319  169.3870 C.3     1  UNL1        0.0233
     25 C         140.1742  140.5649  168.1700 C.3     1  UNL1        0.0938
     26 C         141.2235  137.5690  155.5845 C.3     1  UNL1        0.1110
     27 C         140.7909  136.1701  155.2588 C.3     1  UNL1        0.0939
     28 N         141.6720  135.0101  155.6167 N.3     1  UNL1       -0.2712
     29 C         141.3732  133.5632  155.3575 C.3     1  UNL1        0.0722
     30 C         142.5231  132.7521  155.8773 C.3     1  UNL1        0.0188
     31 C         143.5325  133.6978  156.4576 C.3     1  UNL1        0.0188
     32 C         143.0065  135.0933  156.2966 C.3     1  UNL1        0.0722
@<TRIPOS>BOND
     1    19    20    2
     2    20    12    1
     3    12    13   ar
     4    13    14   ar
     5    14    15   ar
     6    15     1    1
     7     1     2   ar
     8     2     3   ar
     9     3     4   ar
    10     4     5   ar
    11     5     6   ar
    12     5     7    1
    13     7     8    1
    14     8     9    1
    15     9    26    1
    16    26    27    1
    17    27    28    1
    18    28    29    1
    19    29    30    1
    20    30    31    1
    21    31    32    1
    22     9    10   am
    23    10    11    2
    24    15    16   ar
    25    16    17   ar
    26    17    18    1
    27    20    21   am
    28    21    22    1
    29    22    23    1
    30    23    24    1
    31    24    25    1
    32    17    12   ar
    33    25    21    1
    34     6     1   ar
    35    32    28    1
    36    10     4    1
@<TRIPOS>MOLECULE
*****
 32 36 0 0 0
SMALL
GASTEIGER

@<TRIPOS>ATOM
      1 C         140.2774  138.9351  161.2803 C.ar    1  UNL1       -0.0002
      2 C         139.4550  138.3763  160.1572 C.ar    1  UNL1        0.0001
      3 C         139.9854  138.4019  158.7544 C.ar    1  UNL1        0.0042
      4 C         141.3382  138.9865  158.4746 C.ar    1  UNL1        0.0497
      5 C         142.1606  139.5454  159.5977 C.ar    1  UNL1       -0.0161
      6 C         141.6302  139.5197  161.0005 C.ar    1  UNL1       -0.0041
      7 C         143.5134  140.1299  159.3179 C.3     1  UNL1        0.0480
      8 C         144.0438  140.1556  157.9151 C.3     1  UNL1        0.0984
      9 N         143.2214  139.5967  156.7919 N.am    1  UNL1       -0.2743
     10 C         141.8686  139.0122  157.0717 C.2     1  UNL1        0.2488
     11 O         141.0462  138.4533  155.9486 O.2     1  UNL1       -0.2699
     12 C         138.6863  138.8580  165.4890 C.ar    1  UNL1        0.0810
     13 C         139.4239  137.6710  164.9441 C.ar    1  UNL1        0.0068
     14 C         139.9543  137.6967  163.5412 C.ar    1  UNL1        0.0003
     15 C         139.7470  138.9094  162.6832 C.ar    1  UNL1        0.0022
     16 C         139.0095  140.0965  163.2280 C.ar    1  UNL1        0.0298
     17 C         138.4791  140.0708  164.6309 C.ar    1  UNL1        0.1445
     18 F         137.7415  141.2579  165.1757 F       1  UNL1       -0.2040
     19 O         136.9717  137.9762  167.2304 O.2     1  UNL1       -0.2698
     20 C         138.1560  138.8323  166.8918 C.2     1  UNL1        0.2512
     21 N         138.8099  139.6627  167.9561 N.am    1  UNL1       -0.2760
     22 C         138.3934  139.7389  169.3951 C.3     1  UNL1        0.0938
     23 C         139.3213  140.6860  170.0967 C.3     1  UNL1        0.0233
     24 C         140.3112  141.1951  169.0913 C.3     1  UNL1        0.0233
     25 C         139.9952  140.5627  167.7683 C.3     1  UNL1        0.0938
     26 C         143.7518  139.6224  155.3891 C.3     1  UNL1        0.1110
     27 C         145.2268  139.5060  155.1427 C.3     1  UNL1        0.0939
     28 N         146.0451  140.7383  154.8933 N.3     1  UNL1       -0.2712
     29 C         146.5296  141.7009  155.9367 C.3     1  UNL1        0.0722
     30 C         147.3064  142.7818  155.2450 C.3     1  UNL1        0.0188
     31 C         147.3020  142.4871  153.7742 C.3     1  UNL1        0.0188
     32 C         146.5225  141.2241  153.5569 C.3     1  UNL1        0.0722
@<TRIPOS>BOND
     1    19    20    2
     2    20    12    1
     3    12    13   ar
     4    13    14   ar
     5    14    15   ar
     6    15     1    1
     7     1     2   ar
     8     2     3   ar
     9     3     4   ar
    10     4     5   ar
    11     5     6   ar
    12     5     7    1
    13     7     8    1
    14     8     9    1
    15     9    26    1
    16    26    27    1
    17    27    28    1
    18    28    29    1
    19    29    30    1
    20    30    31    1
    21    31    32    1
    22     9    10   am
    23    10    11    2
    24    15    16   ar
    25    16    17   ar
    26    17    18    1
    27    20    21   am
    28    21    22    1
    29    22    23    1
    30    23    24    1
    31    24    25    1
    32    17    12   ar
    33    25    21    1
    34     6     1   ar
    35    32    28    1
    36    10     4    1
