@<TRIPOS>MOLECULE
*****
 33 35 0 0 0
SMALL
GASTEIGER

@<TRIPOS>ATOM
      1 C         140.2850  139.9753  167.0076 C.ar    1  UNL1        0.0730
      2 C         140.0816  139.2263  165.7239 C.ar    1  UNL1        0.0322
      3 C         138.8740  138.3540  165.5479 C.ar    1  UNL1        0.0653
      4 C         137.8699  138.2308  166.6554 C.ar    1  UNL1        0.1133
      5 N         138.0734  138.9797  167.9390 N.ar    1  UNL1       -0.2367
      6 C         139.2809  139.8520  168.1151 C.ar    1  UNL1        0.1476
      7 C         139.4843  140.6009  169.3987 C.2     1  UNL1        0.2617
      8 N         139.2070  139.9293  170.7109 N.am    1  UNL1       -0.3240
      9 O         139.9651  142.0216  169.3700 O.2     1  UNL1       -0.2687
     10 H         138.8915  138.9970  170.7298 H       1  UNL1        0.1453
     11 H         139.3406  140.4209  171.5534 H       1  UNL1        0.1453
     12 N         141.4925  140.8475  167.1837 N.pl3   1  UNL1       -0.2965
     13 H         142.0464  140.7638  167.9933 H       1  UNL1        0.1537
     14 C         143.6010  142.8509  164.4835 C.ar    1  UNL1        0.1427
     15 C         142.5837  143.8469  164.0114 C.ar    1  UNL1        0.0517
     16 C         141.2026  143.8431  164.5967 C.ar    1  UNL1        0.0638
     17 C         140.1852  144.8392  164.1245 C.3     1  UNL1        0.0522
     18 N         140.8389  142.8433  165.6541 N.ar    1  UNL1       -0.2347
     19 C         141.8562  141.8474  166.1262 C.ar    1  UNL1        0.1348
     20 C         143.2373  141.8511  165.5409 C.ar    1  UNL1        0.0712
     21 C         145.7344  141.5663  163.7430 C.3     1  UNL1        0.2525
     22 O         144.9821  142.8546  163.8982 O.3     1  UNL1       -0.4713
     23 N         138.6705  137.6051  164.2643 N.pl3   1  UNL1       -0.3316
     24 H         138.2988  136.6936  164.2798 H       1  UNL1        0.1468
     25 C         139.0335  138.2449  162.9570 C.3     1  UNL1        0.0833
     26 C         138.1117  139.2498  162.3322 C.3     1  UNL1        0.0208
     27 C         138.4746  139.8896  161.0249 C.3     1  UNL1        0.0018
     28 C         139.7595  139.5245  160.3424 C.3     1  UNL1        0.0015
     29 C         140.6814  138.5196  160.9672 C.3     1  UNL1        0.0172
     30 C         140.3184  137.8798  162.2745 C.3     1  UNL1        0.0689
     31 N         141.2403  136.8748  162.8992 N.3     1  UNL1       -0.3209
     32 H         140.8393  136.5454  163.7773 H       1  UNL1        0.1189
     33 H         142.1448  137.3099  163.0806 H       1  UNL1        0.1189
@<TRIPOS>BOND
     1    21    22    1
     2    22    14    1
     3    14    15   ar
     4    15    16   ar
     5    16    17    1
     6    16    18   ar
     7    18    19   ar
     8    19    12    1
     9    12     1    1
    10     1     2   ar
    11     2     3   ar
    12     3    23    1
    13    25    23    1
    14    25    26    1
    15    26    27    1
    16    27    28    1
    17    28    29    1
    18    29    30    1
    19    30    31    1
    20     3     4   ar
    21     4     5   ar
    22     5     6   ar
    23     6     7    1
    24     7     8   am
    25     7     9    2
    26    19    20   ar
    27    20    14   ar
    28     6     1   ar
    29    30    25    1
    30    12    13    1
    31    23    24    1
    32    31    32    1
    33    31    33    1
    34     8    10    1
    35     8    11    1
@<TRIPOS>MOLECULE
*****
 33 35 0 0 0
SMALL
GASTEIGER

@<TRIPOS>ATOM
      1 C         140.4174  139.8631  167.0155 C.ar    1  UNL1        0.0730
      2 C         140.2221  139.1077  165.7344 C.ar    1  UNL1        0.0322
      3 C         138.9628  138.3242  165.5102 C.ar    1  UNL1        0.0653
      4 C         137.8988  138.2961  166.5672 C.ar    1  UNL1        0.1133
      5 N         138.0941  139.0515  167.8483 N.ar    1  UNL1       -0.2367
      6 C         139.3534  139.8350  168.0724 C.ar    1  UNL1        0.1476
      7 C         139.5487  140.5904  169.3535 C.2     1  UNL1        0.2617
      8 N         139.2712  139.9227  170.6677 N.am    1  UNL1       -0.3240
      9 O         140.0215  142.0136  169.3204 O.2     1  UNL1       -0.2687
     10 H         138.9609  138.9886  170.6894 H       1  UNL1        0.1453
     11 H         139.3994  140.4185  171.5085 H       1  UNL1        0.1453
     12 N         141.6767  140.6466  167.2397 N.pl3   1  UNL1       -0.2965
     13 H         142.1646  140.5614  168.0905 H       1  UNL1        0.1537
     14 C         141.8676  143.6203  164.6184 C.ar    1  UNL1        0.1427
     15 C         143.2244  143.3868  164.0232 C.ar    1  UNL1        0.0517
     16 C         144.0654  142.2399  164.5001 C.ar    1  UNL1        0.0638
     17 C         145.4224  142.0065  163.9048 C.3     1  UNL1        0.0522
     18 N         143.5495  141.3265  165.5722 N.ar    1  UNL1       -0.2347
     19 C         142.1927  141.5600  166.1675 C.ar    1  UNL1        0.1348
     20 C         141.3517  142.7069  165.6905 C.ar    1  UNL1        0.0712
     21 C         139.5424  144.7495  164.3574 C.3     1  UNL1        0.2525
     22 O         141.0266  144.7671  164.1415 O.3     1  UNL1       -0.4713
     23 N         138.7675  137.5688  164.2291 N.pl3   1  UNL1       -0.3316
     24 H         138.4668  136.6316  164.2512 H       1  UNL1        0.1468
     25 C         139.0303  138.2413  162.9143 C.3     1  UNL1        0.0833
     26 C         138.0351  139.2161  162.3584 C.3     1  UNL1        0.0208
     27 C         138.2979  139.8887  161.0436 C.3     1  UNL1        0.0018
     28 C         139.5561  139.5864  160.2848 C.3     1  UNL1        0.0015
     29 C         140.5513  138.6115  160.8408 C.3     1  UNL1        0.0172
     30 C         140.2885  137.9390  162.1556 C.3     1  UNL1        0.0689
     31 N         141.2837  136.9641  162.7116 N.3     1  UNL1       -0.3209
     32 H         140.9463  136.6061  163.6051 H       1  UNL1        0.1189
     33 H         142.1788  137.4334  162.8495 H       1  UNL1        0.1189
@<TRIPOS>BOND
     1    21    22    1
     2    22    14    1
     3    14    15   ar
     4    15    16   ar
     5    16    17    1
     6    16    18   ar
     7    18    19   ar
     8    19    12    1
     9    12     1    1
    10     1     2   ar
    11     2     3   ar
    12     3    23    1
    13    25    23    1
    14    25    26    1
    15    26    27    1
    16    27    28    1
    17    28    29    1
    18    29    30    1
    19    30    31    1
    20     3     4   ar
    21     4     5   ar
    22     5     6   ar
    23     6     7    1
    24     7     8   am
    25     7     9    2
    26    19    20   ar
    27    20    14   ar
    28     6     1   ar
    29    30    25    1
    30    12    13    1
    31    23    24    1
    32    31    32    1
    33    31    33    1
    34     8    10    1
    35     8    11    1
@<TRIPOS>MOLECULE
*****
 33 35 0 0 0
SMALL
GASTEIGER

@<TRIPOS>ATOM
      1 C         139.9522  140.0568  165.0416 C.ar    1  UNL1        0.0730
      2 C         140.3682  140.2001  166.4756 C.ar    1  UNL1        0.0322
      3 C         139.4738  139.6972  167.5698 C.ar    1  UNL1        0.0653
      4 C         138.1636  139.0509  167.2300 C.ar    1  UNL1        0.1133
      5 N         137.7476  138.9076  165.7960 N.ar    1  UNL1       -0.2367
      6 C         138.6418  139.4104  164.7018 C.ar    1  UNL1        0.1476
      7 C         138.2258  139.2671  163.2678 C.2     1  UNL1        0.2617
      8 N         137.4669  140.3710  162.5931 N.am    1  UNL1       -0.3240
      9 O         138.5688  138.0197  162.5085 O.2     1  UNL1       -0.2687
     10 H         137.2418  141.1897  163.0914 H       1  UNL1        0.1453
     11 H         137.1938  140.2769  161.6519 H       1  UNL1        0.1453
     12 N         140.8464  140.5596  163.9474 N.pl3   1  UNL1       -0.2965
     13 H         141.2665  139.9241  163.3238 H       1  UNL1        0.1537
     14 C         140.2843  144.3981  163.1103 C.ar    1  UNL1        0.1427
     15 C         141.6092  144.9734  163.5149 C.ar    1  UNL1        0.0517
     16 C         142.6798  144.0775  164.0636 C.ar    1  UNL1        0.0638
     17 C         144.0047  144.6528  164.4682 C.3     1  UNL1        0.0522
     18 N         142.4256  142.6062  164.2078 N.ar    1  UNL1       -0.2347
     19 C         141.1007  142.0309  163.8032 C.ar    1  UNL1        0.1348
     20 C         140.0301  142.9269  163.2545 C.ar    1  UNL1        0.0712
     21 C         139.5806  146.4382  161.6638 C.3     1  UNL1        0.2525
     22 O         139.2137  145.2940  162.5616 O.3     1  UNL1       -0.4713
     23 N         139.8899  139.8406  169.0038 N.pl3   1  UNL1       -0.3316
     24 H         139.4972  139.2552  169.6912 H       1  UNL1        0.1468
     25 C         140.9041  140.8759  169.3906 C.3     1  UNL1        0.0833
     26 C         140.4750  142.2927  169.6320 C.3     1  UNL1        0.0208
     27 C         141.4893  143.3280  170.0188 C.3     1  UNL1        0.0018
     28 C         142.9326  142.9464  170.1641 C.3     1  UNL1        0.0015
     29 C         143.3617  141.5294  169.9227 C.3     1  UNL1        0.0172
     30 C         142.3475  140.4942  169.5359 C.3     1  UNL1        0.0689
     31 N         142.7765  139.0772  169.2945 N.3     1  UNL1       -0.3209
     32 H         141.9641  138.5142  169.0428 H       1  UNL1        0.1189
     33 H         143.2012  138.7014  170.1423 H       1  UNL1        0.1189
@<TRIPOS>BOND
     1    21    22    1
     2    22    14    1
     3    14    15   ar
     4    15    16   ar
     5    16    17    1
     6    16    18   ar
     7    18    19   ar
     8    19    12    1
     9    12     1    1
    10     1     2   ar
    11     2     3   ar
    12     3    23    1
    13    25    23    1
    14    25    26    1
    15    26    27    1
    16    27    28    1
    17    28    29    1
    18    29    30    1
    19    30    31    1
    20     3     4   ar
    21     4     5   ar
    22     5     6   ar
    23     6     7    1
    24     7     8   am
    25     7     9    2
    26    19    20   ar
    27    20    14   ar
    28     6     1   ar
    29    30    25    1
    30    12    13    1
    31    23    24    1
    32    31    32    1
    33    31    33    1
    34     8    10    1
    35     8    11    1
@<TRIPOS>MOLECULE
*****
 33 35 0 0 0
SMALL
GASTEIGER

@<TRIPOS>ATOM
      1 C         139.9138  140.1321  164.9479 C.ar    1  UNL1        0.0730
      2 C         140.3971  140.1939  166.3666 C.ar    1  UNL1        0.0322
      3 C         139.5251  139.6903  167.4785 C.ar    1  UNL1        0.0653
      4 C         138.1701  139.1249  167.1717 C.ar    1  UNL1        0.1133
      5 N         137.6869  139.0631  165.7530 N.ar    1  UNL1       -0.2367
      6 C         138.5587  139.5667  164.6411 C.ar    1  UNL1        0.1476
      7 C         138.0755  139.5049  163.2224 C.2     1  UNL1        0.2617
      8 N         137.4394  140.7090  162.5937 N.am    1  UNL1       -0.3240
      9 O         138.2284  138.2389  162.4325 O.2     1  UNL1       -0.2687
     10 H         137.3391  141.5399  163.1121 H       1  UNL1        0.1453
     11 H         137.1223  140.6684  161.6625 H       1  UNL1        0.1453
     12 N         140.7857  140.6357  163.8361 N.pl3   1  UNL1       -0.2965
     13 H         141.1731  140.0028  163.1891 H       1  UNL1        0.1537
     14 C         142.6619  144.1262  164.0512 C.ar    1  UNL1        0.1427
     15 C         141.6306  145.0394  163.4576 C.ar    1  UNL1        0.0517
     16 C         140.3176  144.4848  162.9902 C.ar    1  UNL1        0.0638
     17 C         139.2863  145.3981  162.3966 C.3     1  UNL1        0.0522
     18 N         140.0360  143.0169  163.1164 N.ar    1  UNL1       -0.2347
     19 C         141.0673  142.1037  163.7099 C.ar    1  UNL1        0.1348
     20 C         142.3803  142.6583  164.1773 C.ar    1  UNL1        0.0712
     21 C         144.7850  143.9339  165.5363 C.3     1  UNL1        0.2525
     22 O         143.9749  144.6808  164.5186 O.3     1  UNL1       -0.4713
     23 N         140.0084  139.7521  168.8972 N.pl3   1  UNL1       -0.3316
     24 H         139.6965  139.0872  169.5529 H       1  UNL1        0.1468
     25 C         140.9668  140.8270  169.3169 C.3     1  UNL1        0.0833
     26 C         140.4693  142.2200  169.5660 C.3     1  UNL1        0.0208
     27 C         141.4277  143.2949  169.9858 C.3     1  UNL1        0.0018
     28 C         142.8836  142.9768  170.1563 C.3     1  UNL1        0.0015
     29 C         143.3811  141.5837  169.9072 C.3     1  UNL1        0.0172
     30 C         142.4227  140.5089  169.4875 C.3     1  UNL1        0.0689
     31 N         142.9202  139.1158  169.2384 N.3     1  UNL1       -0.3209
     32 H         142.1393  138.5200  168.9634 H       1  UNL1        0.1189
     33 H         143.3443  138.7488  170.0903 H       1  UNL1        0.1189
@<TRIPOS>BOND
     1    21    22    1
     2    22    14    1
     3    14    15   ar
     4    15    16   ar
     5    16    17    1
     6    16    18   ar
     7    18    19   ar
     8    19    12    1
     9    12     1    1
    10     1     2   ar
    11     2     3   ar
    12     3    23    1
    13    25    23    1
    14    25    26    1
    15    26    27    1
    16    27    28    1
    17    28    29    1
    18    29    30    1
    19    30    31    1
    20     3     4   ar
    21     4     5   ar
    22     5     6   ar
    23     6     7    1
    24     7     8   am
    25     7     9    2
    26    19    20   ar
    27    20    14   ar
    28     6     1   ar
    29    30    25    1
    30    12    13    1
    31    23    24    1
    32    31    32    1
    33    31    33    1
    34     8    10    1
    35     8    11    1
@<TRIPOS>MOLECULE
*****
 33 35 0 0 0
SMALL
GASTEIGER

@<TRIPOS>ATOM
      1 C         141.7211  140.2652  167.0545 C.ar    1  UNL1        0.0730
      2 C         140.6189  140.3402  166.0398 C.ar    1  UNL1        0.0322
      3 C         139.1989  140.0934  166.4553 C.ar    1  UNL1        0.0653
      4 C         138.8810  139.7716  167.8855 C.ar    1  UNL1        0.1133
      5 N         139.9832  139.6966  168.9002 N.ar    1  UNL1       -0.2367
      6 C         141.4032  139.9434  168.4848 C.ar    1  UNL1        0.1476
      7 C         142.5053  139.8684  169.4995 C.2     1  UNL1        0.2617
      8 N         142.8189  138.5644  170.1712 N.am    1  UNL1       -0.3240
      9 O         143.2939  141.0975  169.8425 O.2     1  UNL1       -0.2687
     10 H         142.3013  137.7577  169.9460 H       1  UNL1        0.1453
     11 H         143.5423  138.5152  170.8372 H       1  UNL1        0.1453
     12 N         143.1411  140.5119  166.6391 N.pl3   1  UNL1       -0.2965
     13 H         143.8818  140.1777  167.1949 H       1  UNL1        0.1537
     14 C         144.0483  141.2802  162.8527 C.ar    1  UNL1        0.1427
     15 C         144.0158  142.7798  162.8521 C.ar    1  UNL1        0.0517
     16 C         143.6917  143.5235  164.1138 C.ar    1  UNL1        0.0638
     17 C         143.6592  145.0232  164.1131 C.3     1  UNL1        0.0522
     18 N         143.4002  142.7676  165.3761 N.ar    1  UNL1       -0.2347
     19 C         143.4327  141.2680  165.3767 C.ar    1  UNL1        0.1348
     20 C         143.7567  140.5243  164.1150 C.ar    1  UNL1        0.0712
     21 C         144.1161  139.0612  161.5031 C.3     1  UNL1        0.2525
     22 O         144.3724  140.5365  161.5910 O.3     1  UNL1       -0.4713
     23 N         138.0967  140.1684  165.4406 N.pl3   1  UNL1       -0.3316
     24 H         137.2573  140.6341  165.6591 H       1  UNL1        0.1468
     25 C         138.2735  139.5338  164.0930 C.3     1  UNL1        0.0833
     26 C         139.0688  138.2691  163.9580 C.3     1  UNL1        0.0208
     27 C         139.2456  137.6345  162.6104 C.3     1  UNL1        0.0018
     28 C         138.6272  138.2646  161.3977 C.3     1  UNL1        0.0015
     29 C         137.8319  139.5294  161.5327 C.3     1  UNL1        0.0172
     30 C         137.6551  140.1639  162.8803 C.3     1  UNL1        0.0689
     31 N         136.8599  141.4286  163.0153 N.3     1  UNL1       -0.3209
     32 H         136.8431  141.7169  163.9936 H       1  UNL1        0.1189
     33 H         135.9061  141.2666  162.6922 H       1  UNL1        0.1189
@<TRIPOS>BOND
     1    21    22    1
     2    22    14    1
     3    14    15   ar
     4    15    16   ar
     5    16    17    1
     6    16    18   ar
     7    18    19   ar
     8    19    12    1
     9    12     1    1
    10     1     2   ar
    11     2     3   ar
    12     3    23    1
    13    25    23    1
    14    25    26    1
    15    26    27    1
    16    27    28    1
    17    28    29    1
    18    29    30    1
    19    30    31    1
    20     3     4   ar
    21     4     5   ar
    22     5     6   ar
    23     6     7    1
    24     7     8   am
    25     7     9    2
    26    19    20   ar
    27    20    14   ar
    28     6     1   ar
    29    30    25    1
    30    12    13    1
    31    23    24    1
    32    31    32    1
    33    31    33    1
    34     8    10    1
    35     8    11    1
@<TRIPOS>MOLECULE
*****
 33 35 0 0 0
SMALL
GASTEIGER

@<TRIPOS>ATOM
      1 C         141.8026  139.5926  166.9330 C.ar    1  UNL1        0.0730
      2 C         140.7226  139.5280  165.8940 C.ar    1  UNL1        0.0322
      3 C         139.2817  139.6010  166.3045 C.ar    1  UNL1        0.0653
      4 C         138.9208  139.7385  167.7540 C.ar    1  UNL1        0.1133
      5 N         140.0008  139.8031  168.7929 N.ar    1  UNL1       -0.2367
      6 C         141.4417  139.7301  168.3824 C.ar    1  UNL1        0.1476
      7 C         142.5217  139.7947  169.4214 C.2     1  UNL1        0.2617
      8 N         142.7960  138.6052  170.2930 N.am    1  UNL1       -0.3240
      9 O         143.3275  141.0488  169.5886 O.2     1  UNL1       -0.2687
     10 H         142.2671  137.7821  170.1833 H       1  UNL1        0.1453
     11 H         143.5048  138.6476  170.9749 H       1  UNL1        0.1453
     12 N         143.2435  139.5196  166.5225 N.pl3   1  UNL1       -0.2965
     13 H         143.9315  139.2743  167.1825 H       1  UNL1        0.1537
     14 C         144.5112  141.4930  163.3211 C.ar    1  UNL1        0.1427
     15 C         144.4213  140.4225  162.2743 C.ar    1  UNL1        0.0517
     16 C         143.9389  139.0510  162.6435 C.ar    1  UNL1        0.0638
     17 C         143.8490  137.9804  161.5966 C.3     1  UNL1        0.0522
     18 N         143.5463  138.7500  164.0595 N.ar    1  UNL1       -0.2347
     19 C         143.6361  139.8206  165.1063 C.ar    1  UNL1        0.1348
     20 C         144.1186  141.1920  164.7371 C.ar    1  UNL1        0.0712
     21 C         144.0076  143.9751  162.7418 C.3     1  UNL1        0.2525
     22 O         144.9936  142.8644  162.9518 O.3     1  UNL1       -0.4713
     23 N         138.2017  139.5364  165.2656 N.pl3   1  UNL1       -0.3316
     24 H         137.5688  138.7823  165.2596 H       1  UNL1        0.1468
     25 C         138.0859  140.6209  164.2358 C.3     1  UNL1        0.0833
     26 C         138.0620  142.0593  164.6607 C.3     1  UNL1        0.0208
     27 C         137.9462  143.1438  163.6308 C.3     1  UNL1        0.0018
     28 C         137.8543  142.7899  162.1761 C.3     1  UNL1        0.0015
     29 C         137.8782  141.3514  161.7512 C.3     1  UNL1        0.0172
     30 C         137.9940  140.2670  162.7810 C.3     1  UNL1        0.0689
     31 N         138.0179  138.8286  162.3561 N.3     1  UNL1       -0.3209
     32 H         138.1002  138.2322  163.1795 H       1  UNL1        0.1189
     33 H         138.8149  138.6693  161.7398 H       1  UNL1        0.1189
@<TRIPOS>BOND
     1    21    22    1
     2    22    14    1
     3    14    15   ar
     4    15    16   ar
     5    16    17    1
     6    16    18   ar
     7    18    19   ar
     8    19    12    1
     9    12     1    1
    10     1     2   ar
    11     2     3   ar
    12     3    23    1
    13    25    23    1
    14    25    26    1
    15    26    27    1
    16    27    28    1
    17    28    29    1
    18    29    30    1
    19    30    31    1
    20     3     4   ar
    21     4     5   ar
    22     5     6   ar
    23     6     7    1
    24     7     8   am
    25     7     9    2
    26    19    20   ar
    27    20    14   ar
    28     6     1   ar
    29    30    25    1
    30    12    13    1
    31    23    24    1
    32    31    32    1
    33    31    33    1
    34     8    10    1
    35     8    11    1
@<TRIPOS>MOLECULE
*****
 33 35 0 0 0
SMALL
GASTEIGER

@<TRIPOS>ATOM
      1 C         139.2942  141.0897  165.0656 C.ar    1  UNL1        0.0730
      2 C         139.8111  141.0248  166.4722 C.ar    1  UNL1        0.0322
      3 C         139.3362  139.9432  167.3967 C.ar    1  UNL1        0.0653
      4 C         138.3443  138.9265  166.9145 C.ar    1  UNL1        0.1133
      5 N         137.8274  138.9914  165.5078 N.ar    1  UNL1       -0.2367
      6 C         138.3023  140.0730  164.5834 C.ar    1  UNL1        0.1476
      7 C         137.7854  140.1378  163.1768 C.2     1  UNL1        0.2617
      8 N         137.9589  138.9641  162.2591 N.am    1  UNL1       -0.3240
      9 O         137.0949  141.3765  162.6879 O.2     1  UNL1       -0.2687
     10 H         138.4121  138.1512  162.5800 H       1  UNL1        0.1453
     11 H         137.6197  139.0067  161.3359 H       1  UNL1        0.1453
     12 N         139.7691  142.1713  164.1412 N.pl3   1  UNL1       -0.2965
     13 H         139.1164  142.7413  163.6740 H       1  UNL1        0.1537
     14 C         143.5974  141.4311  163.4018 C.ar    1  UNL1        0.1427
     15 C         144.1775  142.8106  163.5031 C.ar    1  UNL1        0.0517
     16 C         143.2883  143.9770  163.8171 C.ar    1  UNL1        0.0638
     17 C         143.8685  145.3566  163.9185 C.3     1  UNL1        0.0522
     18 N         141.8188  143.7639  164.0298 N.ar    1  UNL1       -0.2347
     19 C         141.2386  142.3844  163.9285 C.ar    1  UNL1        0.1348
     20 C         142.1279  141.2180  163.6144 C.ar    1  UNL1        0.0712
     21 C         143.8928  138.9839  162.5807 C.3     1  UNL1        0.2525
     22 O         144.4866  140.2646  163.0877 O.3     1  UNL1       -0.4713
     23 N         139.8531  139.8783  168.8033 N.pl3   1  UNL1       -0.3316
     24 H         139.5306  139.1770  169.4144 H       1  UNL1        0.1468
     25 C         140.8613  140.8820  169.2788 C.3     1  UNL1        0.0833
     26 C         140.4143  142.2466  169.7123 C.3     1  UNL1        0.0208
     27 C         141.4226  143.2503  170.1879 C.3     1  UNL1        0.0018
     28 C         142.8779  142.8893  170.2299 C.3     1  UNL1        0.0015
     29 C         143.3249  141.5246  169.7964 C.3     1  UNL1        0.0172
     30 C         142.3166  140.5210  169.3209 C.3     1  UNL1        0.0689
     31 N         142.7637  139.1563  168.8874 N.3     1  UNL1       -0.3209
     32 H         141.9531  138.6091  168.5975 H       1  UNL1        0.1189
     33 H         143.2295  138.6882  169.6647 H       1  UNL1        0.1189
@<TRIPOS>BOND
     1    21    22    1
     2    22    14    1
     3    14    15   ar
     4    15    16   ar
     5    16    17    1
     6    16    18   ar
     7    18    19   ar
     8    19    12    1
     9    12     1    1
    10     1     2   ar
    11     2     3   ar
    12     3    23    1
    13    25    23    1
    14    25    26    1
    15    26    27    1
    16    27    28    1
    17    28    29    1
    18    29    30    1
    19    30    31    1
    20     3     4   ar
    21     4     5   ar
    22     5     6   ar
    23     6     7    1
    24     7     8   am
    25     7     9    2
    26    19    20   ar
    27    20    14   ar
    28     6     1   ar
    29    30    25    1
    30    12    13    1
    31    23    24    1
    32    31    32    1
    33    31    33    1
    34     8    10    1
    35     8    11    1
@<TRIPOS>MOLECULE
*****
 33 35 0 0 0
SMALL
GASTEIGER

@<TRIPOS>ATOM
      1 C         141.0187  142.0291  167.2476 C.ar    1  UNL1        0.0730
      2 C         141.8980  141.2870  166.2852 C.ar    1  UNL1        0.0322
      3 C         142.6167  140.0473  166.7288 C.ar    1  UNL1        0.0653
      4 C         142.4560  139.5497  168.1346 C.ar    1  UNL1        0.1133
      5 N         141.5767  140.2917  169.0970 N.ar    1  UNL1       -0.2367
      6 C         140.8580  141.5314  168.6535 C.ar    1  UNL1        0.1476
      7 C         139.9787  142.2734  169.6159 C.2     1  UNL1        0.2617
      8 N         139.0617  141.5167  170.5304 N.am    1  UNL1       -0.3240
      9 O         140.0166  143.7722  169.6638 O.2     1  UNL1       -0.2687
     10 H         139.0368  140.5331  170.4990 H       1  UNL1        0.1453
     11 H         138.4845  142.0038  171.1621 H       1  UNL1        0.1453
     12 N         140.3000  143.2687  166.8041 N.pl3   1  UNL1       -0.2965
     13 H         140.2301  144.0409  167.4109 H       1  UNL1        0.1537
     14 C         138.1754  142.2914  163.5977 C.ar    1  UNL1        0.1427
     15 C         138.4634  143.4583  162.7003 C.ar    1  UNL1        0.0517
     16 C         139.3636  144.5620  163.1709 C.ar    1  UNL1        0.0638
     17 C         139.6516  145.7290  162.2734 C.3     1  UNL1        0.0522
     18 N         139.9758  144.4989  164.5388 N.ar    1  UNL1       -0.2347
     19 C         139.6878  143.3319  165.4361 C.ar    1  UNL1        0.1348
     20 C         138.7876  142.2282  164.9656 C.ar    1  UNL1        0.0712
     21 C         137.6316  140.4004  161.9011 C.3     1  UNL1        0.2525
     22 O         137.2752  141.1876  163.1272 O.3     1  UNL1       -0.4713
     23 N         143.4960  139.3053  165.7664 N.pl3   1  UNL1       -0.3316
     24 H         144.4573  139.2060  165.9540 H       1  UNL1        0.1468
     25 C         142.9105  138.7144  164.5181 C.3     1  UNL1        0.0833
     26 C         141.6480  137.9077  164.5908 C.3     1  UNL1        0.0208
     27 C         141.0625  137.3168  163.3425 C.3     1  UNL1        0.0018
     28 C         141.7396  137.5326  162.0216 C.3     1  UNL1        0.0015
     29 C         143.0022  138.3393  161.9489 C.3     1  UNL1        0.0172
     30 C         143.5876  138.9302  163.1971 C.3     1  UNL1        0.0689
     31 N         144.8502  139.7369  163.1244 N.3     1  UNL1       -0.3209
     32 H         145.1024  140.0585  164.0590 H       1  UNL1        0.1189
     33 H         144.7046  140.5421  162.5155 H       1  UNL1        0.1189
@<TRIPOS>BOND
     1    21    22    1
     2    22    14    1
     3    14    15   ar
     4    15    16   ar
     5    16    17    1
     6    16    18   ar
     7    18    19   ar
     8    19    12    1
     9    12     1    1
    10     1     2   ar
    11     2     3   ar
    12     3    23    1
    13    25    23    1
    14    25    26    1
    15    26    27    1
    16    27    28    1
    17    28    29    1
    18    29    30    1
    19    30    31    1
    20     3     4   ar
    21     4     5   ar
    22     5     6   ar
    23     6     7    1
    24     7     8   am
    25     7     9    2
    26    19    20   ar
    27    20    14   ar
    28     6     1   ar
    29    30    25    1
    30    12    13    1
    31    23    24    1
    32    31    32    1
    33    31    33    1
    34     8    10    1
    35     8    11    1
@<TRIPOS>MOLECULE
*****
 33 35 0 0 0
SMALL
GASTEIGER

@<TRIPOS>ATOM
      1 C         142.8206  140.8706  164.3281 C.ar    1  UNL1        0.0730
      2 C         142.2483  140.7150  165.7058 C.ar    1  UNL1        0.0322
      3 C         142.7636  139.6388  166.6149 C.ar    1  UNL1        0.0653
      4 C         143.8512  138.7183  166.1462 C.ar    1  UNL1        0.1133
      5 N         144.4235  138.8738  164.7684 N.ar    1  UNL1       -0.2367
      6 C         143.9083  139.9500  163.8594 C.ar    1  UNL1        0.1476
      7 C         144.4806  140.1055  162.4816 C.2     1  UNL1        0.2617
      8 N         144.3733  138.9820  161.4936 N.am    1  UNL1       -0.3240
      9 O         145.1602  141.3847  162.0919 O.2     1  UNL1       -0.2687
     10 H         143.9272  138.1425  161.7495 H       1  UNL1        0.1453
     11 H         144.7490  139.0842  160.5894 H       1  UNL1        0.1453
     12 N         142.3054  141.9467  163.4190 N.pl3   1  UNL1       -0.2965
     13 H         142.9111  142.3773  162.7733 H       1  UNL1        0.1537
     14 C         138.4093  142.1302  162.6864 C.ar    1  UNL1        0.1427
     15 C         137.9913  143.2070  163.6434 C.ar    1  UNL1        0.0517
     16 C         139.0114  143.8637  164.5256 C.ar    1  UNL1        0.0638
     17 C         138.5933  144.9405  165.4827 C.3     1  UNL1        0.0522
     18 N         140.4494  143.4436  164.4508 N.ar    1  UNL1       -0.2347
     19 C         140.8673  142.3668  163.4938 C.ar    1  UNL1        0.1348
     20 C         139.8473  141.7102  162.6116 C.ar    1  UNL1        0.0712
     21 C         137.6453  140.1018  161.2540 C.3     1  UNL1        0.2525
     22 O         137.3892  141.4736  161.8042 O.3     1  UNL1       -0.4713
     23 N         142.1913  139.4832  167.9927 N.pl3   1  UNL1       -0.3316
     24 H         142.1305  138.5902  168.4025 H       1  UNL1        0.1468
     25 C         141.7115  140.6884  168.7460 C.3     1  UNL1        0.0833
     26 C         142.6824  141.7613  169.1413 C.3     1  UNL1        0.0208
     27 C         142.2026  142.9665  169.8947 C.3     1  UNL1        0.0018
     28 C         140.7520  143.0987  170.2526 C.3     1  UNL1        0.0015
     29 C         139.7811  142.0257  169.8573 C.3     1  UNL1        0.0172
     30 C         140.2609  140.8206  169.1040 C.3     1  UNL1        0.0689
     31 N         139.2900  139.7477  168.7086 N.3     1  UNL1       -0.3209
     32 H         139.7845  139.0095  168.2077 H       1  UNL1        0.1189
     33 H         138.5708  140.1457  168.1046 H       1  UNL1        0.1189
@<TRIPOS>BOND
     1    21    22    1
     2    22    14    1
     3    14    15   ar
     4    15    16   ar
     5    16    17    1
     6    16    18   ar
     7    18    19   ar
     8    19    12    1
     9    12     1    1
    10     1     2   ar
    11     2     3   ar
    12     3    23    1
    13    25    23    1
    14    25    26    1
    15    26    27    1
    16    27    28    1
    17    28    29    1
    18    29    30    1
    19    30    31    1
    20     3     4   ar
    21     4     5   ar
    22     5     6   ar
    23     6     7    1
    24     7     8   am
    25     7     9    2
    26    19    20   ar
    27    20    14   ar
    28     6     1   ar
    29    30    25    1
    30    12    13    1
    31    23    24    1
    32    31    32    1
    33    31    33    1
    34     8    10    1
    35     8    11    1
