@<TRIPOS>MOLECULE
*****
 32 35 0 0 0
SMALL
GASTEIGER

@<TRIPOS>ATOM
      1 C         138.3938  140.5350  160.6123 C.ar    1  UNL1        0.0598
      2 C         138.4349  139.5558  161.7477 C.ar    1  UNL1        0.0422
      3 C         138.4051  140.0482  163.1643 C.ar    1  UNL1        0.1484
      4 C         138.3342  141.5200  163.4453 C.ar    1  UNL1        0.0717
      5 C         138.2917  142.2959  164.7283 C.ar    1  UNL1        0.0390
      6 C         138.2243  143.7546  164.3858 C.ar    1  UNL1        0.1234
      7 C         138.1662  144.8887  165.3658 C.3     1  UNL1        0.0725
      8 O         138.2252  143.8803  162.8910 O.2     1  UNL1       -0.4576
      9 C         138.2932  142.4992  162.3098 C.ar    1  UNL1        0.1479
     10 C         138.3230  142.0067  160.8933 C.ar    1  UNL1        0.0422
     11 N         139.6653  139.4015  158.6505 N.am    1  UNL1       -0.2646
     12 C         138.4236  140.0425  159.1957 C.2     1  UNL1        0.2508
     13 O         137.2117  140.1911  158.3244 O.2     1  UNL1       -0.2698
     14 H         140.4607  139.3040  159.2224 H       1  UNL1        0.1566
     15 C         139.7847  137.4318  152.9843 C.3     1  UNL1        0.0538
     16 C         139.7548  137.9242  154.4009 C.ar    1  UNL1        0.0786
     17 C         139.3569  136.9955  155.5095 C.ar    1  UNL1        0.1150
     18 N         139.3271  137.4878  156.9261 N.ar    1  UNL1       -0.2262
     19 C         139.6951  138.9091  157.2340 C.ar    1  UNL1        0.1538
     20 C         140.0930  139.8378  156.1253 C.ar    1  UNL1        0.1328
     21 N         140.1229  139.3454  154.7087 N.ar    1  UNL1       -0.2436
     22 O         138.4462  139.0689  164.2998 O.3     1  UNL1       -0.4534
     23 C         139.3322  139.3280  165.4820 C.ar    1  UNL1        0.1454
     24 C         140.8206  139.3867  165.3051 C.ar    1  UNL1        0.0388
     25 C         141.7067  139.6458  166.4873 C.ar    1  UNL1        0.0215
     26 C         141.1045  139.8463  167.8464 C.ar    1  UNL1        0.1059
     27 C         139.6161  139.7877  168.0233 C.ar    1  UNL1        0.0215
     28 C         138.7300  139.5285  166.8411 C.ar    1  UNL1        0.0388
     29 S         141.9906  140.1055  169.0287 S.O2    1  UNL1        0.0105
     30 C         142.8767  140.3645  170.2109 C.3     1  UNL1        0.1816
     31 O         141.0013  141.1046  169.5511 O.2     1  UNL1       -0.1686
     32 O         142.9798  139.1063  168.5062 O.2     1  UNL1       -0.1686
@<TRIPOS>BOND
     1    15    16    1
     2    16    17   ar
     3    17    18   ar
     4    18    19   ar
     5    19    11    1
     6    11    12   am
     7    12    13    2
     8    12     1    1
     9     1     2   ar
    10     2     3   ar
    11     3    22    1
    12    22    23    1
    13    23    24   ar
    14    24    25   ar
    15    25    26   ar
    16    26    29    1
    17    29    30    1
    18    29    31    2
    19    29    32    2
    20    26    27   ar
    21    27    28   ar
    22     3     4   ar
    23     4     5   ar
    24     5     6   ar
    25     6     7    1
    26     6     8   ar
    27     8     9   ar
    28     9    10   ar
    29    19    20   ar
    30    20    21   ar
    31    21    16   ar
    32    10     1   ar
    33    28    23   ar
    34     9     4   ar
    35    11    14    1
@<TRIPOS>MOLECULE
*****
 32 35 0 0 0
SMALL
GASTEIGER

@<TRIPOS>ATOM
      1 C         143.5366  139.6320  160.6949 C.ar    1  UNL1        0.0598
      2 C         143.2348  138.7386  161.8614 C.ar    1  UNL1        0.0422
      3 C         143.3600  139.2642  163.2608 C.ar    1  UNL1        0.1484
      4 C         143.7871  140.6831  163.4935 C.ar    1  UNL1        0.0717
      5 C         143.9970  141.4747  164.7502 C.ar    1  UNL1        0.0390
      6 C         144.4286  142.8574  164.3603 C.ar    1  UNL1        0.1234
      7 C         144.7475  143.9801  165.3026 C.3     1  UNL1        0.0725
      8 O         144.4854  142.9203  162.8627 O.2     1  UNL1       -0.4576
      9 C         144.0889  141.5765  162.3270 C.ar    1  UNL1        0.1479
     10 C         143.9636  141.0509  160.9277 C.ar    1  UNL1        0.0422
     11 N         142.5557  137.9059  159.0191 N.am    1  UNL1       -0.2646
     12 C         143.4114  139.1064  159.2955 C.2     1  UNL1        0.2508
     13 O         144.1417  139.7814  158.1727 O.2     1  UNL1       -0.2698
     14 H         142.0763  137.4628  159.7561 H       1  UNL1        0.1566
     15 C         142.0546  135.8036  153.4218 C.3     1  UNL1        0.0538
     16 C         142.1799  136.3292  154.8212 C.ar    1  UNL1        0.0786
     17 C         143.4672  136.1621  155.5726 C.ar    1  UNL1        0.1150
     18 N         143.5926  136.6876  156.9719 N.ar    1  UNL1       -0.2262
     19 C         142.4304  137.3803  157.6198 C.ar    1  UNL1        0.1538
     20 C         141.1430  137.5474  156.8683 C.ar    1  UNL1        0.1328
     21 N         141.0178  137.0218  155.4690 N.ar    1  UNL1       -0.2436
     22 O         143.0582  138.3707  164.4273 O.3     1  UNL1       -0.4534
     23 C         142.2711  138.8965  165.5908 C.ar    1  UNL1        0.1454
     24 C         140.8477  139.3293  165.3991 C.ar    1  UNL1        0.0388
     25 C         140.0605  139.8552  166.5625 C.ar    1  UNL1        0.0215
     26 C         140.6966  139.9483  167.9178 C.ar    1  UNL1        0.1059
     27 C         142.1200  139.5155  168.1095 C.ar    1  UNL1        0.0215
     28 C         142.9072  138.9897  166.9460 C.ar    1  UNL1        0.0388
     29 S         139.9094  140.4742  169.0814 S.O2    1  UNL1        0.0105
     30 C         139.1224  141.0001  170.2450 C.3     1  UNL1        0.1816
     31 O         138.8042  139.5091  168.7699 O.2     1  UNL1       -0.1686
     32 O         141.0147  141.4392  169.3928 O.2     1  UNL1       -0.1686
@<TRIPOS>BOND
     1    15    16    1
     2    16    17   ar
     3    17    18   ar
     4    18    19   ar
     5    19    11    1
     6    11    12   am
     7    12    13    2
     8    12     1    1
     9     1     2   ar
    10     2     3   ar
    11     3    22    1
    12    22    23    1
    13    23    24   ar
    14    24    25   ar
    15    25    26   ar
    16    26    29    1
    17    29    30    1
    18    29    31    2
    19    29    32    2
    20    26    27   ar
    21    27    28   ar
    22     3     4   ar
    23     4     5   ar
    24     5     6   ar
    25     6     7    1
    26     6     8   ar
    27     8     9   ar
    28     9    10   ar
    29    19    20   ar
    30    20    21   ar
    31    21    16   ar
    32    10     1   ar
    33    28    23   ar
    34     9     4   ar
    35    11    14    1
@<TRIPOS>MOLECULE
*****
 32 35 0 0 0
SMALL
GASTEIGER

@<TRIPOS>ATOM
      1 C         138.2879  140.8226  160.6831 C.ar    1  UNL1        0.0598
      2 C         138.3471  139.8063  161.7846 C.ar    1  UNL1        0.0422
      3 C         138.3924  140.2532  163.2159 C.ar    1  UNL1        0.1484
      4 C         138.3785  141.7164  163.5454 C.ar    1  UNL1        0.0717
      5 C         138.4140  142.4512  164.8526 C.ar    1  UNL1        0.0390
      6 C         138.3768  143.9217  164.5589 C.ar    1  UNL1        0.1234
      7 C         138.3949  145.0245  165.5755 C.3     1  UNL1        0.0725
      8 O         138.3183  144.0957  163.0702 O.2     1  UNL1       -0.4576
      9 C         138.3193  142.7328  162.4438 C.ar    1  UNL1        0.1479
     10 C         138.2740  142.2859  161.0127 C.ar    1  UNL1        0.0422
     11 N         137.6221  141.2585  158.2099 N.am    1  UNL1       -0.2646
     12 C         138.2426  140.3758  159.2519 C.2     1  UNL1        0.2508
     13 O         138.8178  139.0463  158.8627 O.2     1  UNL1       -0.2698
     14 H         137.2446  142.1311  158.4654 H       1  UNL1        0.1566
     15 C         137.4408  139.4713  152.4851 C.3     1  UNL1        0.0538
     16 C         137.4861  139.9181  153.9164 C.ar    1  UNL1        0.0786
     17 C         136.2531  139.8375  154.7666 C.ar    1  UNL1        0.1150
     18 N         136.2983  140.2842  156.1978 N.ar    1  UNL1       -0.2262
     19 C         137.5768  140.8117  156.7787 C.ar    1  UNL1        0.1538
     20 C         138.8098  140.8924  155.9284 C.ar    1  UNL1        0.1328
     21 N         138.7645  140.4456  154.4972 N.ar    1  UNL1       -0.2436
     22 O         138.4515  139.2367  164.3174 O.3     1  UNL1       -0.4534
     23 C         139.3516  139.4600  165.4964 C.ar    1  UNL1        0.1454
     24 C         138.7678  139.5841  166.8726 C.ar    1  UNL1        0.0388
     25 C         139.6678  139.8074  168.0517 C.ar    1  UNL1        0.0215
     26 C         141.1514  139.9066  167.8545 C.ar    1  UNL1        0.1059
     27 C         141.7352  139.7825  166.4783 C.ar    1  UNL1        0.0215
     28 C         140.8352  139.5592  165.2993 C.ar    1  UNL1        0.0388
     29 S         142.0515  140.1299  169.0336 S.O2    1  UNL1        0.0105
     30 C         142.9515  140.3533  170.2126 C.3     1  UNL1        0.1816
     31 O         143.0293  139.1391  168.4749 O.2     1  UNL1       -0.1686
     32 O         141.0737  141.1208  169.5922 O.2     1  UNL1       -0.1686
@<TRIPOS>BOND
     1    15    16    1
     2    16    17   ar
     3    17    18   ar
     4    18    19   ar
     5    19    11    1
     6    11    12   am
     7    12    13    2
     8    12     1    1
     9     1     2   ar
    10     2     3   ar
    11     3    22    1
    12    22    23    1
    13    23    24   ar
    14    24    25   ar
    15    25    26   ar
    16    26    29    1
    17    29    30    1
    18    29    31    2
    19    29    32    2
    20    26    27   ar
    21    27    28   ar
    22     3     4   ar
    23     4     5   ar
    24     5     6   ar
    25     6     7    1
    26     6     8   ar
    27     8     9   ar
    28     9    10   ar
    29    19    20   ar
    30    20    21   ar
    31    21    16   ar
    32    10     1   ar
    33    28    23   ar
    34     9     4   ar
    35    11    14    1
@<TRIPOS>MOLECULE
*****
 32 35 0 0 0
SMALL
GASTEIGER

@<TRIPOS>ATOM
      1 C         142.3600  138.5507  160.8432 C.ar    1  UNL1        0.0598
      2 C         143.3188  138.7541  161.9785 C.ar    1  UNL1        0.0422
      3 C         142.8581  138.5618  163.3931 C.ar    1  UNL1        0.1484
      4 C         141.4384  138.1660  163.6721 C.ar    1  UNL1        0.0717
      5 C         140.7023  137.9059  164.9529 C.ar    1  UNL1        0.0390
      6 C         139.2884  137.5417  164.6090 C.ar    1  UNL1        0.1234
      7 C         138.2027  137.2021  165.5868 C.3     1  UNL1        0.0725
      8 O         139.1507  137.5767  163.1158 O.2     1  UNL1       -0.4576
      9 C         140.4795  137.9625  162.5367 C.ar    1  UNL1        0.1479
     10 C         140.9403  138.1549  161.1223 C.ar    1  UNL1        0.0422
     11 N         143.0720  140.1253  158.9032 N.am    1  UNL1       -0.2646
     12 C         142.8207  138.7430  159.4287 C.2     1  UNL1        0.2508
     13 O         143.0301  137.5532  158.5397 O.2     1  UNL1       -0.2698
     14 H         142.9345  140.9062  159.4867 H       1  UNL1        0.1566
     15 C         144.9147  140.8949  153.2452 C.3     1  UNL1        0.0538
     16 C         144.4540  140.7025  154.6598 C.ar    1  UNL1        0.0786
     17 C         145.4417  140.3333  155.7265 C.ar    1  UNL1        0.1150
     18 N         144.9811  140.1408  157.1411 N.ar    1  UNL1       -0.2262
     19 C         143.5327  140.3177  157.4887 C.ar    1  UNL1        0.1538
     20 C         142.5450  140.6869  156.4219 C.ar    1  UNL1        0.1328
     21 N         143.0057  140.8793  155.0074 N.ar    1  UNL1       -0.2436
     22 O         143.8171  138.7653  164.5284 O.3     1  UNL1       -0.4534
     23 C         143.4472  139.6645  165.6705 C.ar    1  UNL1        0.1454
     24 C         143.3941  141.1499  165.4687 C.ar    1  UNL1        0.0388
     25 C         143.0243  142.0493  166.6108 C.ar    1  UNL1        0.0215
     26 C         142.7075  141.4632  167.9547 C.ar    1  UNL1        0.1059
     27 C         142.7606  139.9778  168.1565 C.ar    1  UNL1        0.0215
     28 C         143.1305  139.0784  167.0145 C.ar    1  UNL1        0.0388
     29 S         142.3376  142.3625  169.0969 S.O2    1  UNL1        0.0105
     30 C         141.9676  143.2617  170.2391 C.3     1  UNL1        0.1816
     31 O         143.7774  142.7516  169.2568 O.2     1  UNL1       -0.1686
     32 O         140.8978  141.9733  168.9369 O.2     1  UNL1       -0.1686
@<TRIPOS>BOND
     1    15    16    1
     2    16    17   ar
     3    17    18   ar
     4    18    19   ar
     5    19    11    1
     6    11    12   am
     7    12    13    2
     8    12     1    1
     9     1     2   ar
    10     2     3   ar
    11     3    22    1
    12    22    23    1
    13    23    24   ar
    14    24    25   ar
    15    25    26   ar
    16    26    29    1
    17    29    30    1
    18    29    31    2
    19    29    32    2
    20    26    27   ar
    21    27    28   ar
    22     3     4   ar
    23     4     5   ar
    24     5     6   ar
    25     6     7    1
    26     6     8   ar
    27     8     9   ar
    28     9    10   ar
    29    19    20   ar
    30    20    21   ar
    31    21    16   ar
    32    10     1   ar
    33    28    23   ar
    34     9     4   ar
    35    11    14    1
@<TRIPOS>MOLECULE
*****
 32 35 0 0 0
SMALL
GASTEIGER

@<TRIPOS>ATOM
      1 C         142.9624  139.6463  158.5376 C.ar    1  UNL1        0.0598
      2 C         142.6621  138.8008  157.3357 C.ar    1  UNL1        0.0422
      3 C         143.4792  138.9547  156.0872 C.ar    1  UNL1        0.1484
      4 C         144.5966  139.9543  156.0407 C.ar    1  UNL1        0.0717
      5 C         145.5661  140.3264  154.9583 C.ar    1  UNL1        0.0390
      6 C         146.4655  141.4020  155.4913 C.ar    1  UNL1        0.1234
      7 C         147.5824  142.0680  154.7437 C.3     1  UNL1        0.0725
      8 O         146.0520  141.6947  156.9031 O.2     1  UNL1       -0.4576
      9 C         144.8969  140.7999  157.2427 C.ar    1  UNL1        0.1479
     10 C         144.0798  140.6460  158.4911 C.ar    1  UNL1        0.0422
     11 N         141.9683  138.1372  160.4042 N.am    1  UNL1       -0.2646
     12 C         142.1452  139.4924  159.7861 C.2     1  UNL1        0.2508
     13 O         141.5051  140.6935  160.4163 O.2     1  UNL1       -0.2698
     14 H         142.3885  137.3488  159.9905 H       1  UNL1        0.1566
     15 C         138.7000  137.5212  165.3981 C.3     1  UNL1        0.0538
     16 C         139.5171  137.6752  164.1496 C.ar    1  UNL1        0.0786
     17 C         138.8363  137.8339  162.8225 C.ar    1  UNL1        0.1150
     18 N         139.6532  137.9879  161.5740 N.ar    1  UNL1       -0.2262
     19 C         141.1513  137.9832  161.6527 C.ar    1  UNL1        0.1538
     20 C         141.8321  137.8245  162.9798 C.ar    1  UNL1        0.1328
     21 N         141.0150  137.6704  164.2282 N.ar    1  UNL1       -0.2436
     22 O         143.1789  138.1090  154.8852 O.3     1  UNL1       -0.4534
     23 C         142.9519  136.6348  155.0432 C.ar    1  UNL1        0.1454
     24 C         143.9966  135.7812  155.6988 C.ar    1  UNL1        0.0388
     25 C         143.7697  134.3069  155.8568 C.ar    1  UNL1        0.0215
     26 C         142.4980  133.6863  155.3593 C.ar    1  UNL1        0.1059
     27 C         141.4532  134.5399  154.7037 C.ar    1  UNL1        0.0215
     28 C         141.6802  136.0142  154.5456 C.ar    1  UNL1        0.0388
     29 S         142.2709  132.2119  155.5173 S.O2    1  UNL1        0.0105
     30 C         142.0438  130.7377  155.6751 C.3     1  UNL1        0.1816
     31 O         142.5284  132.3301  156.9902 O.2     1  UNL1       -0.1686
     32 O         142.0134  132.0938  154.0443 O.2     1  UNL1       -0.1686
@<TRIPOS>BOND
     1    15    16    1
     2    16    17   ar
     3    17    18   ar
     4    18    19   ar
     5    19    11    1
     6    11    12   am
     7    12    13    2
     8    12     1    1
     9     1     2   ar
    10     2     3   ar
    11     3    22    1
    12    22    23    1
    13    23    24   ar
    14    24    25   ar
    15    25    26   ar
    16    26    29    1
    17    29    30    1
    18    29    31    2
    19    29    32    2
    20    26    27   ar
    21    27    28   ar
    22     3     4   ar
    23     4     5   ar
    24     5     6   ar
    25     6     7    1
    26     6     8   ar
    27     8     9   ar
    28     9    10   ar
    29    19    20   ar
    30    20    21   ar
    31    21    16   ar
    32    10     1   ar
    33    28    23   ar
    34     9     4   ar
    35    11    14    1
@<TRIPOS>MOLECULE
*****
 32 35 0 0 0
SMALL
GASTEIGER

@<TRIPOS>ATOM
      1 C         142.6243  139.7312  160.1514 C.ar    1  UNL1        0.0598
      2 C         143.4968  139.7926  161.3699 C.ar    1  UNL1        0.0422
      3 C         143.4431  140.9904  162.2713 C.ar    1  UNL1        0.1484
      4 C         142.5168  142.1268  161.9541 C.ar    1  UNL1        0.0717
      5 C         142.2483  143.4274  162.6514 C.ar    1  UNL1        0.0390
      6 C         141.2098  144.1698  161.8637 C.ar    1  UNL1        0.1234
      7 C         140.6439  145.5174  162.2009 C.3     1  UNL1        0.0725
      8 O         140.8364  143.3280  160.6796 O.2     1  UNL1       -0.4576
      9 C         141.6442  142.0653  160.7355 C.ar    1  UNL1        0.1479
     10 C         141.6980  140.8675  159.8342 C.ar    1  UNL1        0.0422
     11 N         142.4118  138.6871  157.7819 N.am    1  UNL1       -0.2646
     12 C         142.6781  138.5334  159.2500 C.2     1  UNL1        0.2508
     13 O         142.9980  137.1820  159.8167 O.2     1  UNL1       -0.2698
     14 H         142.2018  139.5741  157.4099 H       1  UNL1        0.1566
     15 C         142.6267  133.8962  154.1762 C.3     1  UNL1        0.0538
     16 C         142.5730  135.0939  155.0776 C.ar    1  UNL1        0.0786
     17 C         143.8409  135.7865  155.4810 C.ar    1  UNL1        0.1150
     18 N         143.7873  136.9842  156.3824 N.ar    1  UNL1       -0.2262
     19 C         142.4656  137.4894  156.8804 C.ar    1  UNL1        0.1538
     20 C         141.1976  136.7968  156.4771 C.ar    1  UNL1        0.1328
     21 N         141.2514  135.5991  155.5756 N.ar    1  UNL1       -0.2436
     22 O         144.3157  141.0518  163.4899 O.3     1  UNL1       -0.4534
     23 C         143.7381  140.7535  164.8417 C.ar    1  UNL1        0.1454
     24 C         143.3320  141.8774  165.7483 C.ar    1  UNL1        0.0388
     25 C         142.7544  141.5793  167.1001 C.ar    1  UNL1        0.0215
     26 C         142.5830  140.1572  167.5454 C.ar    1  UNL1        0.1059
     27 C         142.9891  139.0333  166.6388 C.ar    1  UNL1        0.0215
     28 C         143.5666  139.3314  165.2869 C.ar    1  UNL1        0.0388
     29 S         142.0054  139.8589  168.8973 S.O2    1  UNL1        0.0105
     30 C         141.4277  139.5607  170.2490 C.3     1  UNL1        0.1816
     31 O         143.0233  138.7747  169.0929 O.2     1  UNL1       -0.1686
     32 O         140.9875  140.9431  168.7015 O.2     1  UNL1       -0.1686
@<TRIPOS>BOND
     1    15    16    1
     2    16    17   ar
     3    17    18   ar
     4    18    19   ar
     5    19    11    1
     6    11    12   am
     7    12    13    2
     8    12     1    1
     9     1     2   ar
    10     2     3   ar
    11     3    22    1
    12    22    23    1
    13    23    24   ar
    14    24    25   ar
    15    25    26   ar
    16    26    29    1
    17    29    30    1
    18    29    31    2
    19    29    32    2
    20    26    27   ar
    21    27    28   ar
    22     3     4   ar
    23     4     5   ar
    24     5     6   ar
    25     6     7    1
    26     6     8   ar
    27     8     9   ar
    28     9    10   ar
    29    19    20   ar
    30    20    21   ar
    31    21    16   ar
    32    10     1   ar
    33    28    23   ar
    34     9     4   ar
    35    11    14    1
@<TRIPOS>MOLECULE
*****
 32 35 0 0 0
SMALL
GASTEIGER

@<TRIPOS>ATOM
      1 C         139.1476  146.7860  155.4090 C.ar    1  UNL1        0.0598
      2 C         140.0582  146.2376  156.4672 C.ar    1  UNL1        0.0422
      3 C         139.8150  144.8686  157.0301 C.ar    1  UNL1        0.1484
      4 C         138.6612  144.0482  156.5347 C.ar    1  UNL1        0.0717
      5 C         138.1755  142.6765  156.8988 C.ar    1  UNL1        0.0390
      6 C         136.9647  142.3772  156.0656 C.ar    1  UNL1        0.1234
      7 C         136.1581  141.1131  156.1045 C.3     1  UNL1        0.0725
      8 O         136.7020  143.5639  155.1865 O.2     1  UNL1       -0.4576
      9 C         137.7505  144.5966  155.4765 C.ar    1  UNL1        0.1479
     10 C         137.9937  145.9656  154.9136 C.ar    1  UNL1        0.0422
     11 N         139.1095  149.3697  155.6801 N.am    1  UNL1       -0.2646
     12 C         139.3907  148.1551  154.8461 C.2     1  UNL1        0.2508
     13 O         139.9150  148.3094  153.4493 O.2     1  UNL1       -0.2698
     14 H         138.7653  149.2683  156.5969 H       1  UNL1        0.1566
     15 C         140.0820  154.8456  153.4287 C.3     1  UNL1        0.0538
     16 C         139.8388  153.4766  153.9916 C.ar    1  UNL1        0.0786
     17 C         138.4454  153.0467  154.3427 C.ar    1  UNL1        0.1150
     18 N         138.2021  151.6777  154.9055 N.ar    1  UNL1       -0.2262
     19 C         139.3526  150.7386  155.1173 C.ar    1  UNL1        0.1538
     20 C         140.7461  151.1686  154.7661 C.ar    1  UNL1        0.1328
     21 N         140.9892  152.5375  154.2033 N.ar    1  UNL1       -0.2436
     22 O         140.7258  144.3202  158.0884 O.3     1  UNL1       -0.4534
     23 C         140.3313  144.4019  159.5332 C.ar    1  UNL1        0.1454
     24 C         139.8857  143.1676  160.2599 C.ar    1  UNL1        0.0388
     25 C         139.4912  143.2492  161.7048 C.ar    1  UNL1        0.0215
     26 C         139.5423  144.5651  162.4230 C.ar    1  UNL1        0.1059
     27 C         139.9879  145.7993  161.6964 C.ar    1  UNL1        0.0215
     28 C         140.3824  145.7178  160.2515 C.ar    1  UNL1        0.0388
     29 S         139.1478  144.6468  163.8680 S.O2    1  UNL1        0.0105
     30 C         138.7532  144.7285  165.3128 C.3     1  UNL1        0.1816
     31 O         140.5824  144.8658  164.2472 O.2     1  UNL1       -0.1686
     32 O         137.7132  144.4277  163.4886 O.2     1  UNL1       -0.1686
@<TRIPOS>BOND
     1    15    16    1
     2    16    17   ar
     3    17    18   ar
     4    18    19   ar
     5    19    11    1
     6    11    12   am
     7    12    13    2
     8    12     1    1
     9     1     2   ar
    10     2     3   ar
    11     3    22    1
    12    22    23    1
    13    23    24   ar
    14    24    25   ar
    15    25    26   ar
    16    26    29    1
    17    29    30    1
    18    29    31    2
    19    29    32    2
    20    26    27   ar
    21    27    28   ar
    22     3     4   ar
    23     4     5   ar
    24     5     6   ar
    25     6     7    1
    26     6     8   ar
    27     8     9   ar
    28     9    10   ar
    29    19    20   ar
    30    20    21   ar
    31    21    16   ar
    32    10     1   ar
    33    28    23   ar
    34     9     4   ar
    35    11    14    1
@<TRIPOS>MOLECULE
*****
 32 35 0 0 0
SMALL
GASTEIGER

@<TRIPOS>ATOM
      1 C         143.3022  142.2965  158.5198 C.ar    1  UNL1        0.0598
      2 C         142.7591  141.3737  157.4695 C.ar    1  UNL1        0.0422
      3 C         143.6479  140.8934  156.3607 C.ar    1  UNL1        0.1484
      4 C         145.0798  141.3361  156.3023 C.ar    1  UNL1        0.0717
      5 C         146.1863  141.0303  155.3368 C.ar    1  UNL1        0.0390
      6 C         147.4133  141.7641  155.7905 C.ar    1  UNL1        0.1234
      7 C         148.7533  141.7425  155.1166 C.3     1  UNL1        0.0725
      8 O         147.0652  142.5235  157.0363 O.2     1  UNL1       -0.4576
      9 C         145.6230  142.2590  157.3526 C.ar    1  UNL1        0.1479
     10 C         144.7342  142.7392  158.4614 C.ar    1  UNL1        0.0422
     11 N         141.2782  141.9196  160.1045 N.am    1  UNL1       -0.2646
     12 C         142.4134  142.7768  159.6287 C.2     1  UNL1        0.2508
     13 O         142.6599  144.1141  160.2616 O.2     1  UNL1       -0.2698
     14 H         141.1164  141.0419  159.6890 H       1  UNL1        0.1566
     15 C         137.7229  143.8405  164.5396 C.3     1  UNL1        0.0538
     16 C         138.6118  143.3602  163.4308 C.ar    1  UNL1        0.0786
     17 C         139.8339  142.5502  163.7468 C.ar    1  UNL1        0.1150
     18 N         140.7228  142.0699  162.6381 N.ar    1  UNL1       -0.2262
     19 C         140.3894  142.3998  161.2133 C.ar    1  UNL1        0.1538
     20 C         139.1671  143.2099  160.8973 C.ar    1  UNL1        0.1328
     21 N         138.2783  143.6902  162.0061 N.ar    1  UNL1       -0.2436
     22 O         143.1046  139.9705  155.3104 O.3     1  UNL1       -0.4534
     23 C         143.0279  138.4960  155.5746 C.ar    1  UNL1        0.1454
     24 C         141.7523  137.8902  156.0804 C.ar    1  UNL1        0.0388
     25 C         141.6755  136.4156  156.3447 C.ar    1  UNL1        0.0215
     26 C         142.8742  135.5470  156.1031 C.ar    1  UNL1        0.1059
     27 C         144.1498  136.1528  155.5972 C.ar    1  UNL1        0.0215
     28 C         144.2266  137.6273  155.3330 C.ar    1  UNL1        0.0388
     29 S         142.7975  134.0723  156.3673 S.O2    1  UNL1        0.0105
     30 C         142.7209  132.5978  156.6316 C.3     1  UNL1        0.1816
     31 O         141.5424  133.9912  155.5500 O.2     1  UNL1       -0.1686
     32 O         144.0526  134.1536  157.1846 O.2     1  UNL1       -0.1686
@<TRIPOS>BOND
     1    15    16    1
     2    16    17   ar
     3    17    18   ar
     4    18    19   ar
     5    19    11    1
     6    11    12   am
     7    12    13    2
     8    12     1    1
     9     1     2   ar
    10     2     3   ar
    11     3    22    1
    12    22    23    1
    13    23    24   ar
    14    24    25   ar
    15    25    26   ar
    16    26    29    1
    17    29    30    1
    18    29    31    2
    19    29    32    2
    20    26    27   ar
    21    27    28   ar
    22     3     4   ar
    23     4     5   ar
    24     5     6   ar
    25     6     7    1
    26     6     8   ar
    27     8     9   ar
    28     9    10   ar
    29    19    20   ar
    30    20    21   ar
    31    21    16   ar
    32    10     1   ar
    33    28    23   ar
    34     9     4   ar
    35    11    14    1
@<TRIPOS>MOLECULE
*****
 32 35 0 0 0
SMALL
GASTEIGER

@<TRIPOS>ATOM
      1 C         141.4128  138.1518  159.1848 C.ar    1  UNL1        0.0598
      2 C         142.5389  137.4821  158.4547 C.ar    1  UNL1        0.0422
      3 C         142.3501  137.0308  157.0366 C.ar    1  UNL1        0.1484
      4 C         141.0351  137.2493  156.3489 C.ar    1  UNL1        0.0717
      5 C         140.5574  136.9146  154.9670 C.ar    1  UNL1        0.0390
      6 C         139.1359  137.3774  154.8432 C.ar    1  UNL1        0.1234
      7 C         138.2677  137.2430  153.6274 C.3     1  UNL1        0.0725
      8 O         138.7352  137.9982  156.1485 O.2     1  UNL1       -0.4576
      9 C         139.9089  137.9190  157.0791 C.ar    1  UNL1        0.1479
     10 C         140.0978  138.3703  158.4971 C.ar    1  UNL1        0.0422
     11 N         142.1224  137.6441  161.6320 N.am    1  UNL1       -0.2646
     12 C         141.6016  138.6031  160.6029 C.2     1  UNL1        0.2508
     13 O         141.2697  140.0132  160.9917 O.2     1  UNL1       -0.2698
     14 H         142.3403  136.7185  161.3768 H       1  UNL1        0.1566
     15 C         142.8776  139.4489  167.3041 C.3     1  UNL1        0.0538
     16 C         142.6888  138.9977  165.8861 C.ar    1  UNL1        0.0786
     17 C         143.7980  139.1681  164.8908 C.ar    1  UNL1        0.1150
     18 N         143.6093  138.7169  163.4728 N.ar    1  UNL1       -0.2262
     19 C         142.3112  138.0953  163.0500 C.ar    1  UNL1        0.1538
     20 C         141.2020  137.9249  164.0453 C.ar    1  UNL1        0.1328
     21 N         141.3908  138.3761  165.4633 N.ar    1  UNL1       -0.2436
     22 O         143.4763  136.3611  156.3064 O.3     1  UNL1       -0.4534
     23 C         143.4735  134.8719  156.1273 C.ar    1  UNL1        0.1454
     24 C         143.9161  133.9807  157.2498 C.ar    1  UNL1        0.0388
     25 C         143.9133  132.4915  157.0708 C.ar    1  UNL1        0.0215
     26 C         143.4680  131.8934  155.7693 C.ar    1  UNL1        0.1059
     27 C         143.0255  132.7845  154.6468 C.ar    1  UNL1        0.0215
     28 C         143.0283  134.2738  154.8258 C.ar    1  UNL1        0.0388
     29 S         143.4652  130.4040  155.5902 S.O2    1  UNL1        0.0105
     30 C         143.4623  128.9148  155.4111 C.3     1  UNL1        0.1816
     31 O         144.9628  130.3911  155.6741 O.2     1  UNL1       -0.1686
     32 O         141.9677  130.4170  155.5063 O.2     1  UNL1       -0.1686
@<TRIPOS>BOND
     1    15    16    1
     2    16    17   ar
     3    17    18   ar
     4    18    19   ar
     5    19    11    1
     6    11    12   am
     7    12    13    2
     8    12     1    1
     9     1     2   ar
    10     2     3   ar
    11     3    22    1
    12    22    23    1
    13    23    24   ar
    14    24    25   ar
    15    25    26   ar
    16    26    29    1
    17    29    30    1
    18    29    31    2
    19    29    32    2
    20    26    27   ar
    21    27    28   ar
    22     3     4   ar
    23     4     5   ar
    24     5     6   ar
    25     6     7    1
    26     6     8   ar
    27     8     9   ar
    28     9    10   ar
    29    19    20   ar
    30    20    21   ar
    31    21    16   ar
    32    10     1   ar
    33    28    23   ar
    34     9     4   ar
    35    11    14    1
