@<TRIPOS>MOLECULE
*****
 30 33 0 0 0
SMALL
GASTEIGER

@<TRIPOS>ATOM
      1 C         140.9221  141.6175  168.4145 C.3     1  UNL1        0.0898
      2 N         141.6045  141.8038  168.7819 N.3     1  UNL1       -0.2701
      3 C         141.4177  142.8943  169.7948 C.3     1  UNL1        0.0627
      4 C         142.7490  143.1720  170.4278 C.3     1  UNL1        0.0181
      5 C         143.7585  142.2531  169.8062 C.3     1  UNL1        0.0219
      6 C         143.0512  141.4075  168.7890 C.3     1  UNL1        0.0805
      7 C         142.0946  140.7122  167.8505 C.ar    1  UNL1        0.0004
      8 C         140.6844  141.2128  167.9551 C.ar    1  UNL1        0.0073
      9 S         139.8461  140.4441  166.9772 S.2     1  UNL1       -0.0766
     10 C         140.7381  139.4685  166.2683 C.ar    1  UNL1        0.0857
     11 C         142.1277  139.6342  166.8080 C.ar    1  UNL1        0.0703
     12 C         140.3460  142.3038  168.9272 C.3     1  UNL1        0.0486
     13 N         140.3147  138.4976  165.2061 N.am    1  UNL1       -0.2629
     14 C         140.6301  138.7763  163.7664 C.2     1  UNL1        0.3085
     15 O         141.3689  140.0260  163.3888 O.2     1  UNL1       -0.2521
     16 N         140.2067  137.8055  162.7043 N.am    1  UNL1       -0.2680
     17 H         139.8297  137.6774  165.4539 H       1  UNL1        0.1569
     18 H         139.7218  136.9853  162.9521 H       1  UNL1        0.1564
     19 C         140.5221  138.0842  161.2645 C.ar    1  UNL1        0.0516
     20 C         141.9351  137.9789  160.7723 C.ar    1  UNL1        0.0156
     21 C         142.2505  138.2576  159.3326 C.ar    1  UNL1        0.0127
     22 C         141.1529  138.6417  158.3851 C.ar    1  UNL1        0.0578
     23 CL        141.4683  138.9204  156.9453 Cl      1  UNL1       -0.0822
     24 C         139.7399  138.7470  158.8773 C.ar    1  UNL1        0.0127
     25 C         139.4245  138.4683  160.3170 C.ar    1  UNL1        0.0156
     26 C         143.3380  138.8581  166.3804 C.2     1  UNL1        0.2442
     27 N         143.9267  139.0771  165.0182 N.am    1  UNL1       -0.3253
     28 O         143.9597  137.8631  167.3150 O.2     1  UNL1       -0.2703
     29 H         143.5187  139.7302  164.4048 H       1  UNL1        0.1453
     30 H         144.7211  138.5678  164.7376 H       1  UNL1        0.1453
@<TRIPOS>BOND
     1     1     2    1
     2     2     3    1
     3     3     4    1
     4     4     5    1
     5     6     5    1
     6     6     7    1
     7     7     8   ar
     8     8     9   ar
     9     9    10   ar
    10    10    13    1
    11    13    14   am
    12    14    15    2
    13    14    16   am
    14    16    19    1
    15    19    20   ar
    16    20    21   ar
    17    21    22   ar
    18    22    23    1
    19    22    24   ar
    20    24    25   ar
    21    10    11   ar
    22    11    26    1
    23    26    27   am
    24    26    28    2
    25     8    12    1
    26     6     2    1
    27    11     7   ar
    28    12     3    1
    29    25    19   ar
    30    13    17    1
    31    16    18    1
    32    27    29    1
    33    27    30    1
@<TRIPOS>MOLECULE
*****
 30 33 0 0 0
SMALL
GASTEIGER

@<TRIPOS>ATOM
      1 C         141.4812  140.4252  168.5219 C.3     1  UNL1        0.0898
      2 N         141.2354  141.1376  168.7813 N.3     1  UNL1       -0.2701
      3 C         140.3538  141.0219  169.9894 C.3     1  UNL1        0.0627
      4 C         139.9454  142.4058  170.3995 C.3     1  UNL1        0.0181
      5 C         140.5747  143.3768  169.4449 C.3     1  UNL1        0.0219
      6 C         141.3719  142.5930  168.4449 C.3     1  UNL1        0.0805
      7 C         142.0775  141.5642  167.5946 C.ar    1  UNL1        0.0004
      8 C         141.8494  140.1534  168.0507 C.ar    1  UNL1        0.0073
      9 S         142.6002  139.2407  167.1270 S.2     1  UNL1       -0.0766
     10 C         143.2923  140.0872  166.1002 C.ar    1  UNL1        0.0857
     11 C         142.9692  141.5232  166.3892 C.ar    1  UNL1        0.0703
     12 C         140.9876  139.8823  169.2480 C.3     1  UNL1        0.0486
     13 N         144.1558  139.5857  164.9808 N.am    1  UNL1       -0.2629
     14 C         143.6113  139.5209  163.5847 C.2     1  UNL1        0.3085
     15 O         142.2032  139.9574  163.3078 O.2     1  UNL1       -0.2521
     16 N         144.4748  139.0194  162.4654 N.am    1  UNL1       -0.2680
     17 H         145.0800  139.2992  165.1625 H       1  UNL1        0.1569
     18 H         145.3990  138.7329  162.6471 H       1  UNL1        0.1564
     19 C         143.9302  138.9545  161.0692 C.ar    1  UNL1        0.0516
     20 C         143.2289  137.7165  160.5945 C.ar    1  UNL1        0.0156
     21 C         142.6844  137.6517  159.1984 C.ar    1  UNL1        0.0127
     22 C         142.8412  138.8248  158.2769 C.ar    1  UNL1        0.0578
     23 CL        142.2967  138.7600  156.8807 Cl      1  UNL1       -0.0822
     24 C         143.5426  140.0629  158.7516 C.ar    1  UNL1        0.0127
     25 C         144.0871  140.1277  160.1478 C.ar    1  UNL1        0.0156
     26 C         143.4529  142.7099  165.6096 C.2     1  UNL1        0.2442
     27 N         142.9145  142.9742  164.2347 N.am    1  UNL1       -0.3253
     28 O         144.4750  143.6323  166.2049 O.2     1  UNL1       -0.2703
     29 H         142.2437  142.3688  163.8440 H       1  UNL1        0.1453
     30 H         143.2320  143.7531  163.7231 H       1  UNL1        0.1453
@<TRIPOS>BOND
     1     1     2    1
     2     2     3    1
     3     3     4    1
     4     4     5    1
     5     6     5    1
     6     6     7    1
     7     7     8   ar
     8     8     9   ar
     9     9    10   ar
    10    10    13    1
    11    13    14   am
    12    14    15    2
    13    14    16   am
    14    16    19    1
    15    19    20   ar
    16    20    21   ar
    17    21    22   ar
    18    22    23    1
    19    22    24   ar
    20    24    25   ar
    21    10    11   ar
    22    11    26    1
    23    26    27   am
    24    26    28    2
    25     8    12    1
    26     6     2    1
    27    11     7   ar
    28    12     3    1
    29    25    19   ar
    30    13    17    1
    31    16    18    1
    32    27    29    1
    33    27    30    1
@<TRIPOS>MOLECULE
*****
 30 33 0 0 0
SMALL
GASTEIGER

@<TRIPOS>ATOM
      1 C         143.0589  138.7016  160.3857 C.3     1  UNL1        0.0898
      2 N         143.2934  139.1858  159.7975 N.3     1  UNL1       -0.2701
      3 C         142.8051  138.7199  158.4579 C.3     1  UNL1        0.0627
      4 C         143.2943  139.6895  157.4232 C.3     1  UNL1        0.0181
      5 C         144.0850  140.7547  158.1234 C.3     1  UNL1        0.0219
      6 C         144.0844  140.4434  159.5907 C.3     1  UNL1        0.0805
      7 C         143.9171  139.8915  160.9860 C.ar    1  UNL1        0.0004
      8 C         143.1035  138.6323  161.0373 C.ar    1  UNL1        0.0073
      9 S         143.0160  138.1951  162.4695 S.2     1  UNL1       -0.0766
     10 C         143.7754  139.1840  163.3033 C.ar    1  UNL1        0.0857
     11 C         144.3323  140.2325  162.3864 C.ar    1  UNL1        0.0703
     12 C         142.5475  138.0465  159.7733 C.3     1  UNL1        0.0486
     13 N         143.9477  139.1334  164.7925 N.am    1  UNL1       -0.2629
     14 C         143.0380  139.9297  165.6803 C.2     1  UNL1        0.3085
     15 O         141.9558  140.7766  165.0789 O.2     1  UNL1       -0.2521
     16 N         143.2103  139.8790  167.1695 N.am    1  UNL1       -0.2680
     17 H         144.6580  138.5775  165.1873 H       1  UNL1        0.1569
     18 H         143.9205  139.3231  167.5642 H       1  UNL1        0.1564
     19 C         142.3005  140.6754  168.0573 C.ar    1  UNL1        0.0516
     20 C         140.9595  140.1254  168.4435 C.ar    1  UNL1        0.0156
     21 C         140.0497  140.9217  169.3313 C.ar    1  UNL1        0.0127
     22 C         140.4810  142.2680  169.8329 C.ar    1  UNL1        0.0578
     23 CL        139.5712  143.0643  170.7207 Cl      1  UNL1       -0.0822
     24 C         141.8220  142.8179  169.4467 C.ar    1  UNL1        0.0127
     25 C         142.7318  142.0216  168.5589 C.ar    1  UNL1        0.0156
     26 C         145.1593  141.4144  162.7977 C.2     1  UNL1        0.2442
     27 N         145.1955  142.6411  161.9352 N.am    1  UNL1       -0.3253
     28 O         145.9500  141.3696  164.0716 O.2     1  UNL1       -0.2703
     29 H         144.6765  142.6704  161.0991 H       1  UNL1        0.1453
     30 H         145.7382  143.4168  162.2052 H       1  UNL1        0.1453
@<TRIPOS>BOND
     1     1     2    1
     2     2     3    1
     3     3     4    1
     4     4     5    1
     5     6     5    1
     6     6     7    1
     7     7     8   ar
     8     8     9   ar
     9     9    10   ar
    10    10    13    1
    11    13    14   am
    12    14    15    2
    13    14    16   am
    14    16    19    1
    15    19    20   ar
    16    20    21   ar
    17    21    22   ar
    18    22    23    1
    19    22    24   ar
    20    24    25   ar
    21    10    11   ar
    22    11    26    1
    23    26    27   am
    24    26    28    2
    25     8    12    1
    26     6     2    1
    27    11     7   ar
    28    12     3    1
    29    25    19   ar
    30    13    17    1
    31    16    18    1
    32    27    29    1
    33    27    30    1
@<TRIPOS>MOLECULE
*****
 30 33 0 0 0
SMALL
GASTEIGER

@<TRIPOS>ATOM
      1 C         141.8754  138.0817  160.7353 C.3     1  UNL1        0.0898
      2 N         141.5093  138.2549  160.0487 N.3     1  UNL1       -0.2701
      3 C         142.3849  137.9843  158.8613 C.3     1  UNL1        0.0627
      4 C         141.6125  138.3389  157.6253 C.3     1  UNL1        0.0181
      5 C         140.2595  138.8286  158.0489 C.3     1  UNL1        0.0219
      6 C         140.1957  138.7767  159.5466 C.3     1  UNL1        0.0805
      7 C         140.4139  138.6189  161.0321 C.ar    1  UNL1        0.0004
      8 C         141.7720  138.0879  161.3839 C.ar    1  UNL1        0.0073
      9 S         141.8551  137.9807  162.8777 S.2     1  UNL1       -0.0766
     10 C         140.5484  138.4455  163.4492 C.ar    1  UNL1        0.0857
     11 C         139.6577  138.8399  162.3086 C.ar    1  UNL1        0.0703
     12 C         142.7575  137.7706  160.2985 C.3     1  UNL1        0.0486
     13 N         140.1945  138.5053  164.9057 N.am    1  UNL1       -0.2629
     14 C         140.8675  139.5033  165.8007 C.2     1  UNL1        0.3085
     15 O         141.8944  140.4415  165.2392 O.2     1  UNL1       -0.2521
     16 N         140.5136  139.5631  167.2571 N.am    1  UNL1       -0.2680
     17 H         139.5205  137.8895  165.2742 H       1  UNL1        0.1569
     18 H         139.8396  138.9473  167.6255 H       1  UNL1        0.1564
     19 C         141.1867  140.5611  168.1521 C.ar    1  UNL1        0.0516
     20 C         140.5767  141.9161  168.3568 C.ar    1  UNL1        0.0156
     21 C         141.2497  142.9140  169.2518 C.ar    1  UNL1        0.0127
     22 C         142.5327  142.5570  169.9421 C.ar    1  UNL1        0.0578
     23 CL        143.2057  143.5551  170.8371 Cl      1  UNL1       -0.0822
     24 C         143.1427  141.2020  169.7374 C.ar    1  UNL1        0.0127
     25 C         142.4696  140.2041  168.8424 C.ar    1  UNL1        0.0156
     26 C         138.2568  139.3634  162.4240 C.2     1  UNL1        0.2442
     27 N         137.2237  138.9714  161.4096 N.am    1  UNL1       -0.3253
     28 O         137.8890  140.2789  163.5539 O.2     1  UNL1       -0.2703
     29 H         137.4651  138.3706  160.6680 H       1  UNL1        0.1453
     30 H         136.3042  139.3150  161.4854 H       1  UNL1        0.1453
@<TRIPOS>BOND
     1     1     2    1
     2     2     3    1
     3     3     4    1
     4     4     5    1
     5     6     5    1
     6     6     7    1
     7     7     8   ar
     8     8     9   ar
     9     9    10   ar
    10    10    13    1
    11    13    14   am
    12    14    15    2
    13    14    16   am
    14    16    19    1
    15    19    20   ar
    16    20    21   ar
    17    21    22   ar
    18    22    23    1
    19    22    24   ar
    20    24    25   ar
    21    10    11   ar
    22    11    26    1
    23    26    27   am
    24    26    28    2
    25     8    12    1
    26     6     2    1
    27    11     7   ar
    28    12     3    1
    29    25    19   ar
    30    13    17    1
    31    16    18    1
    32    27    29    1
    33    27    30    1
@<TRIPOS>MOLECULE
*****
 30 33 0 0 0
SMALL
GASTEIGER

@<TRIPOS>ATOM
      1 C         142.2906  141.3884  168.1258 C.3     1  UNL1        0.0898
      2 N         141.7734  141.7805  168.5885 N.3     1  UNL1       -0.2701
      3 C         142.4615  142.7478  169.5055 C.3     1  UNL1        0.0627
      4 C         141.4116  143.4321  170.3298 C.3     1  UNL1        0.0181
      5 C         140.0746  142.8878  169.9222 C.3     1  UNL1        0.0219
      6 C         140.2983  141.8670  168.8460 C.3     1  UNL1        0.0805
      7 C         140.8153  140.9085  167.8005 C.ar    1  UNL1        0.0004
      8 C         142.3080  140.9318  167.6539 C.ar    1  UNL1        0.0073
      9 S         142.6849  139.9418  166.5919 S.2     1  UNL1       -0.0766
     10 C         141.4252  139.3067  166.0821 C.ar    1  UNL1        0.0857
     11 C         140.2698  139.9042  166.8290 C.ar    1  UNL1        0.0703
     12 C         143.1311  141.8514  168.5064 C.3     1  UNL1        0.0486
     13 N         141.3366  138.2582  165.0130 N.am    1  UNL1       -0.2629
     14 C         141.2476  138.6627  163.5714 C.2     1  UNL1        0.3085
     15 O         141.2473  140.1156  163.1987 O.2     1  UNL1       -0.2521
     16 N         141.1590  137.6142  162.5024 N.am    1  UNL1       -0.2680
     17 H         141.3368  137.3046  165.2576 H       1  UNL1        0.1569
     18 H         141.1593  136.6606  162.7470 H       1  UNL1        0.1564
     19 C         141.0700  138.0186  161.0606 C.ar    1  UNL1        0.0516
     20 C         142.3113  138.0790  160.2207 C.ar    1  UNL1        0.0156
     21 C         142.2223  138.4835  158.7790 C.ar    1  UNL1        0.0127
     22 C         140.8920  138.8275  158.1773 C.ar    1  UNL1        0.0578
     23 CL        140.8030  139.2319  156.7355 Cl      1  UNL1       -0.0822
     24 C         139.6507  138.7671  159.0173 C.ar    1  UNL1        0.0127
     25 C         139.7398  138.3626  160.4590 C.ar    1  UNL1        0.0156
     26 C         138.8228  139.5581  166.6381 C.2     1  UNL1        0.2442
     27 N         138.0601  138.8874  167.7419 N.am    1  UNL1       -0.3253
     28 O         138.1385  139.8828  165.3434 O.2     1  UNL1       -0.2703
     29 H         138.5092  138.6743  168.5917 H       1  UNL1        0.1453
     30 H         137.1104  138.6602  167.6166 H       1  UNL1        0.1453
@<TRIPOS>BOND
     1     1     2    1
     2     2     3    1
     3     3     4    1
     4     4     5    1
     5     6     5    1
     6     6     7    1
     7     7     8   ar
     8     8     9   ar
     9     9    10   ar
    10    10    13    1
    11    13    14   am
    12    14    15    2
    13    14    16   am
    14    16    19    1
    15    19    20   ar
    16    20    21   ar
    17    21    22   ar
    18    22    23    1
    19    22    24   ar
    20    24    25   ar
    21    10    11   ar
    22    11    26    1
    23    26    27   am
    24    26    28    2
    25     8    12    1
    26     6     2    1
    27    11     7   ar
    28    12     3    1
    29    25    19   ar
    30    13    17    1
    31    16    18    1
    32    27    29    1
    33    27    30    1
@<TRIPOS>MOLECULE
*****
 30 33 0 0 0
SMALL
GASTEIGER

@<TRIPOS>ATOM
      1 C         143.7861  142.5681  161.8078 C.3     1  UNL1        0.0898
      2 N         143.9088  142.8793  162.5313 N.3     1  UNL1       -0.2701
      3 C         145.1042  142.2758  163.2072 C.3     1  UNL1        0.0627
      4 C         145.2511  142.9217  164.5530 C.3     1  UNL1        0.0181
      5 C         144.1465  143.9245  164.7089 C.3     1  UNL1        0.0219
      6 C         143.3169  143.8983  163.4595 C.3     1  UNL1        0.0805
      7 C         142.6775  143.6592  162.1129 C.ar    1  UNL1        0.0004
      8 C         143.3775  142.6141  161.2956 C.ar    1  UNL1        0.0073
      9 S         142.6456  142.4769  159.9935 S.2     1  UNL1       -0.0766
     10 C         141.4934  143.4373  160.0060 C.ar    1  UNL1        0.0857
     11 C         141.5131  144.1680  161.3158 C.ar    1  UNL1        0.0703
     12 C         144.5908  141.9224  161.8428 C.3     1  UNL1        0.0486
     13 N         140.4964  143.6326  158.9023 N.am    1  UNL1       -0.2629
     14 C         140.6215  144.8072  157.9779 C.2     1  UNL1        0.3085
     15 O         141.7435  145.7865  158.1570 O.2     1  UNL1       -0.2521
     16 N         139.6246  145.0025  156.8743 N.am    1  UNL1       -0.2680
     17 H         139.7601  142.9898  158.7847 H       1  UNL1        0.1569
     18 H         138.8882  144.3597  156.7567 H       1  UNL1        0.1564
     19 C         139.7496  146.1771  155.9497 C.ar    1  UNL1        0.0516
     20 C         140.5992  146.0749  154.7178 C.ar    1  UNL1        0.0156
     21 C         140.7242  147.2495  153.7934 C.ar    1  UNL1        0.0127
     22 C         139.9996  148.5264  154.1009 C.ar    1  UNL1        0.0578
     23 CL        140.1246  149.7010  153.1764 Cl      1  UNL1       -0.0822
     24 C         139.1500  148.6286  155.3328 C.ar    1  UNL1        0.0127
     25 C         139.0250  147.4540  156.2573 C.ar    1  UNL1        0.0156
     26 C         140.5395  145.2223  161.7520 C.2     1  UNL1        0.2442
     27 N         140.8906  146.1471  162.8796 N.am    1  UNL1       -0.3253
     28 O         139.2146  145.3519  161.0606 O.2     1  UNL1       -0.2703
     29 H         141.7601  146.0620  163.3334 H       1  UNL1        0.1453
     30 H         140.2515  146.8391  163.1659 H       1  UNL1        0.1453
@<TRIPOS>BOND
     1     1     2    1
     2     2     3    1
     3     3     4    1
     4     4     5    1
     5     6     5    1
     6     6     7    1
     7     7     8   ar
     8     8     9   ar
     9     9    10   ar
    10    10    13    1
    11    13    14   am
    12    14    15    2
    13    14    16   am
    14    16    19    1
    15    19    20   ar
    16    20    21   ar
    17    21    22   ar
    18    22    23    1
    19    22    24   ar
    20    24    25   ar
    21    10    11   ar
    22    11    26    1
    23    26    27   am
    24    26    28    2
    25     8    12    1
    26     6     2    1
    27    11     7   ar
    28    12     3    1
    29    25    19   ar
    30    13    17    1
    31    16    18    1
    32    27    29    1
    33    27    30    1
@<TRIPOS>MOLECULE
*****
 30 33 0 0 0
SMALL
GASTEIGER

@<TRIPOS>ATOM
      1 C         141.5993  141.8165  167.9768 C.3     1  UNL1        0.0898
      2 N         141.7241  141.2086  168.4771 N.3     1  UNL1       -0.2701
      3 C         142.8467  141.4882  169.4317 C.3     1  UNL1        0.0627
      4 C         143.0033  140.2939  170.3257 C.3     1  UNL1        0.0181
      5 C         141.9774  139.2762  169.9235 C.3     1  UNL1        0.0219
      6 C         141.1868  139.8416  168.7810 C.3     1  UNL1        0.0805
      7 C         140.5718  140.6506  167.6645 C.ar    1  UNL1        0.0004
      8 C         141.2114  141.9945  167.4775 C.ar    1  UNL1        0.0073
      9 S         140.5110  142.6878  166.3467 S.2     1  UNL1       -0.0766
     10 C         139.4386  141.7724  165.8348 C.ar    1  UNL1        0.0857
     11 C         139.4762  140.5133  166.6492 C.ar    1  UNL1        0.0703
     12 C         142.3488  142.4133  168.3611 C.3     1  UNL1        0.0486
     13 N         138.4943  142.0647  164.7064 N.am    1  UNL1       -0.2629
     14 C         138.9033  141.7764  163.2924 C.2     1  UNL1        0.3085
     15 O         140.2565  141.1956  163.0066 O.2     1  UNL1       -0.2521
     16 N         137.9591  142.0687  162.1642 N.am    1  UNL1       -0.2680
     17 H         137.6062  142.4459  164.8940 H       1  UNL1        0.1569
     18 H         137.0710  142.4499  162.3518 H       1  UNL1        0.1564
     19 C         138.3680  141.7804  160.7500 C.ar    1  UNL1        0.0516
     20 C         139.0589  142.8362  159.9390 C.ar    1  UNL1        0.0156
     21 C         139.4678  142.5478  158.5249 C.ar    1  UNL1        0.0127
     22 C         139.1858  141.2036  157.9219 C.ar    1  UNL1        0.0578
     23 CL        139.5948  140.9152  156.5078 Cl      1  UNL1       -0.0822
     24 C         138.4950  140.1478  158.7330 C.ar    1  UNL1        0.0127
     25 C         138.0861  140.4362  160.1471 C.ar    1  UNL1        0.0156
     26 C         138.5762  139.3255  166.4785 C.2     1  UNL1        0.2442
     27 N         137.8965  138.7218  167.6716 N.am    1  UNL1       -0.3253
     28 O         138.3559  138.7415  165.1145 O.2     1  UNL1       -0.2703
     29 H         138.0411  139.1052  168.5668 H       1  UNL1        0.1453
     30 H         137.3058  137.9423  167.5595 H       1  UNL1        0.1453
@<TRIPOS>BOND
     1     1     2    1
     2     2     3    1
     3     3     4    1
     4     4     5    1
     5     6     5    1
     6     6     7    1
     7     7     8   ar
     8     8     9   ar
     9     9    10   ar
    10    10    13    1
    11    13    14   am
    12    14    15    2
    13    14    16   am
    14    16    19    1
    15    19    20   ar
    16    20    21   ar
    17    21    22   ar
    18    22    23    1
    19    22    24   ar
    20    24    25   ar
    21    10    11   ar
    22    11    26    1
    23    26    27   am
    24    26    28    2
    25     8    12    1
    26     6     2    1
    27    11     7   ar
    28    12     3    1
    29    25    19   ar
    30    13    17    1
    31    16    18    1
    32    27    29    1
    33    27    30    1
@<TRIPOS>MOLECULE
*****
 30 33 0 0 0
SMALL
GASTEIGER

@<TRIPOS>ATOM
      1 C         143.5095  139.5223  160.4736 C.3     1  UNL1        0.0898
      2 N         143.0029  139.2499  159.9217 N.3     1  UNL1       -0.2701
      3 C         143.3820  139.6976  158.5412 C.3     1  UNL1        0.0627
      4 C         142.3756  139.1383  157.5798 C.3     1  UNL1        0.0181
      5 C         141.3745  138.3449  158.3661 C.3     1  UNL1        0.0219
      6 C         141.7622  138.4139  159.8135 C.3     1  UNL1        0.0805
      7 C         142.3810  138.6537  161.1696 C.ar    1  UNL1        0.0004
      8 C         143.6144  139.5060  161.1217 C.ar    1  UNL1        0.0073
      9 S         144.1232  139.6642  162.5239 S.2     1  UNL1       -0.0766
     10 C         143.2042  138.9097  163.4384 C.ar    1  UNL1        0.0857
     11 C         142.1274  138.2852  162.6013 C.ar    1  UNL1        0.0703
     12 C         144.1149  140.0280  159.8076 C.3     1  UNL1        0.0486
     13 N         143.3384  138.7991  164.9283 N.am    1  UNL1       -0.2629
     14 C         142.5529  139.7124  165.8220 C.2     1  UNL1        0.3085
     15 O         141.6331  140.7364  165.2258 O.2     1  UNL1       -0.2521
     16 N         142.6871  139.6018  167.3118 N.am    1  UNL1       -0.2680
     17 H         143.9421  138.1270  165.3196 H       1  UNL1        0.1569
     18 H         143.2908  138.9297  167.7031 H       1  UNL1        0.1564
     19 C         141.9016  140.5152  168.2055 C.ar    1  UNL1        0.0516
     20 C         142.4693  141.8451  168.6041 C.ar    1  UNL1        0.0156
     21 C         141.6838  142.7585  169.4978 C.ar    1  UNL1        0.0127
     22 C         140.3305  142.3418  169.9929 C.ar    1  UNL1        0.0578
     23 CL        139.5450  143.2552  170.8867 Cl      1  UNL1       -0.0822
     24 C         139.7628  141.0119  169.5944 C.ar    1  UNL1        0.0127
     25 C         140.5483  140.0986  168.7007 C.ar    1  UNL1        0.0156
     26 C         140.9959  137.4404  163.1072 C.2     1  UNL1        0.2442
     27 N         141.2483  136.3990  164.1568 N.am    1  UNL1       -0.3253
     28 O         139.6118  137.6371  162.5634 O.2     1  UNL1       -0.2703
     29 H         142.1567  136.2700  164.5137 H       1  UNL1        0.1453
     30 H         140.5056  135.8446  164.4888 H       1  UNL1        0.1453
@<TRIPOS>BOND
     1     1     2    1
     2     2     3    1
     3     3     4    1
     4     4     5    1
     5     6     5    1
     6     6     7    1
     7     7     8   ar
     8     8     9   ar
     9     9    10   ar
    10    10    13    1
    11    13    14   am
    12    14    15    2
    13    14    16   am
    14    16    19    1
    15    19    20   ar
    16    20    21   ar
    17    21    22   ar
    18    22    23    1
    19    22    24   ar
    20    24    25   ar
    21    10    11   ar
    22    11    26    1
    23    26    27   am
    24    26    28    2
    25     8    12    1
    26     6     2    1
    27    11     7   ar
    28    12     3    1
    29    25    19   ar
    30    13    17    1
    31    16    18    1
    32    27    29    1
    33    27    30    1
@<TRIPOS>MOLECULE
*****
 30 33 0 0 0
SMALL
GASTEIGER

@<TRIPOS>ATOM
      1 C         141.0974  142.5913  168.0464 C.3     1  UNL1        0.0898
      2 N         141.7559  142.5710  168.4951 N.3     1  UNL1       -0.2701
      3 C         141.4913  143.0204  169.9016 C.3     1  UNL1        0.0627
      4 C         142.7822  142.9474  170.6621 C.3     1  UNL1        0.0181
      5 C         143.8445  142.4529  169.7257 C.3     1  UNL1        0.0219
      6 C         143.2102  142.2202  168.3865 C.3     1  UNL1        0.0805
      7 C         142.3193  142.0799  167.1758 C.ar    1  UNL1        0.0004
      8 C         140.8932  142.4663  167.4348 C.ar    1  UNL1        0.0073
      9 S         140.1241  142.2813  166.1603 S.2     1  UNL1       -0.0766
     10 C         141.0749  141.7807  165.1136 C.ar    1  UNL1        0.0857
     11 C         142.4315  141.6562  165.7412 C.ar    1  UNL1        0.0703
     12 C         140.4792  142.9365  168.7976 C.3     1  UNL1        0.0486
     13 N         140.7295  141.4608  163.6894 N.am    1  UNL1       -0.2629
     14 C         141.0724  142.4312  162.5983 C.2     1  UNL1        0.3085
     15 O         141.7607  143.7217  162.9314 O.2     1  UNL1       -0.2521
     16 N         140.7271  142.1113  161.1741 N.am    1  UNL1       -0.2680
     17 H         140.2778  140.6138  163.4707 H       1  UNL1        0.1569
     18 H         140.2753  141.2643  160.9555 H       1  UNL1        0.1564
     19 C         141.0700  143.0818  160.0830 C.ar    1  UNL1        0.0516
     20 C         140.1042  144.1690  159.7154 C.ar    1  UNL1        0.0156
     21 C         140.4472  145.1394  158.6243 C.ar    1  UNL1        0.0127
     22 C         141.7559  145.0226  157.9007 C.ar    1  UNL1        0.0578
     23 CL        142.0988  145.9931  156.8095 Cl      1  UNL1       -0.0822
     24 C         142.7217  143.9354  158.2682 C.ar    1  UNL1        0.0127
     25 C         142.3787  142.9649  159.3594 C.ar    1  UNL1        0.0156
     26 C         143.6811  141.1899  165.0549 C.2     1  UNL1        0.2442
     27 N         143.8924  139.7280  164.7937 N.am    1  UNL1       -0.3253
     28 O         144.7194  142.1855  164.6297 O.2     1  UNL1       -0.2703
     29 H         143.2110  139.0746  165.0728 H       1  UNL1        0.1453
     30 H         144.7126  139.4220  164.3432 H       1  UNL1        0.1453
@<TRIPOS>BOND
     1     1     2    1
     2     2     3    1
     3     3     4    1
     4     4     5    1
     5     6     5    1
     6     6     7    1
     7     7     8   ar
     8     8     9   ar
     9     9    10   ar
    10    10    13    1
    11    13    14   am
    12    14    15    2
    13    14    16   am
    14    16    19    1
    15    19    20   ar
    16    20    21   ar
    17    21    22   ar
    18    22    23    1
    19    22    24   ar
    20    24    25   ar
    21    10    11   ar
    22    11    26    1
    23    26    27   am
    24    26    28    2
    25     8    12    1
    26     6     2    1
    27    11     7   ar
    28    12     3    1
    29    25    19   ar
    30    13    17    1
    31    16    18    1
    32    27    29    1
    33    27    30    1
