@<TRIPOS>MOLECULE
*****
 44 46 0 0 0
SMALL
GASTEIGER

@<TRIPOS>ATOM
      1 C         140.3766  141.2267  165.1454 C.3     1  UNL1        0.0847
      2 C         139.9869  143.8795  162.2195 C.ar    1  UNL1        0.1653
      3 C         140.3095  142.6071  162.9454 C.ar    1  UNL1        0.0365
      4 C         140.0540  142.4991  164.4195 C.ar    1  UNL1       -0.0022
      5 C         139.4758  143.6636  165.1677 C.ar    1  UNL1       -0.0002
      6 C         139.1532  144.9359  164.4419 C.ar    1  UNL1        0.0325
      7 C         139.4088  145.0439  162.9678 C.ar    1  UNL1        0.1738
      8 F         139.0861  146.3164  162.2419 F       1  UNL1       -0.2010
      9 O         140.2424  143.9875  160.7454 O.3     1  UNL1       -0.4769
     10 C         141.1044  142.0879  159.1968 C.3     1  UNL1        0.0472
     11 C         139.9672  142.8169  159.8487 C.3     1  UNL1        0.1662
     12 C         138.5546  142.3754  159.6041 C.3     1  UNL1        0.0472
     13 C         141.8373  141.4503  164.8882 C.ar    1  UNL1       -0.0001
     14 C         142.5601  142.5636  165.5868 C.ar    1  UNL1        0.0271
     15 C         144.0209  142.7872  165.3296 C.ar    1  UNL1        0.1429
     16 F         145.0293  143.7743  165.8380 F       1  UNL1       -0.2041
     17 C         144.7589  141.8974  164.3738 C.ar    1  UNL1        0.0667
     18 C         144.0362  140.7840  163.6752 C.ar    1  UNL1        0.1461
     19 C         142.5754  140.5605  163.9323 C.ar    1  UNL1        0.0345
     20 O         144.7742  139.8943  162.7193 O.3     1  UNL1       -0.4263
     21 C         144.0619  139.3112  161.5350 C.3     1  UNL1        0.4723
     22 F         143.9780  137.9882  162.2368 F       1  UNL1       -0.1579
     23 F         144.1457  140.6343  160.8332 F       1  UNL1       -0.1579
     24 C         143.3495  138.7281  160.3508 C.3     1  UNL1        0.4202
     25 F         142.5478  137.4695  160.5027 F       1  UNL1       -0.1876
     26 F         143.4389  139.4037  159.0144 F       1  UNL1       -0.1876
     27 N         138.9159  141.0031  165.4026 N.3     1  UNL1       -0.2909
     28 H         138.4381  141.8714  165.1613 H       1  UNL1        0.1238
     29 C         138.1900  139.8982  164.6938 C.3     1  UNL1        0.0989
     30 C         137.7269  140.0910  163.2802 C.3     1  UNL1        0.1347
     31 O         136.7356  141.1691  162.9562 O.3     1  UNL1       -0.3827
     32 H         136.5448  141.1577  162.0052 H       1  UNL1        0.2104
     33 C         138.2551  139.2056  162.1906 C.3     1  UNL1        0.1339
     34 C         139.4316  138.3131  162.4536 C.3     1  UNL1        0.4002
     35 F         140.6081  137.4206  162.7165 F       1  UNL1       -0.1700
     36 F         138.5072  137.2405  162.9485 F       1  UNL1       -0.1700
     37 F         140.3560  139.3857  161.9586 F       1  UNL1       -0.1700
     38 C         140.6992  139.9543  165.8713 C.3     1  UNL1        0.0492
     39 C         140.8874  139.9668  167.3594 C.ar    1  UNL1       -0.0202
     40 C         142.2333  139.6626  167.9477 C.ar    1  UNL1       -0.0042
     41 C         142.4215  139.6751  169.4358 C.ar    1  UNL1       -0.0003
     42 C         141.2639  139.9919  170.3356 C.ar    1  UNL1       -0.0000
     43 C         139.9181  140.2962  169.7473 C.ar    1  UNL1       -0.0003
     44 C         139.7298  140.2837  168.2592 C.ar    1  UNL1       -0.0042
@<TRIPOS>BOND
     1    10    11    1
     2    11    12    1
     3    11     9    1
     4     9     2    1
     5     2     3   ar
     6     3     4   ar
     7     4     1    1
     8     1    38    1
     9    38    39    1
    10    39    40   ar
    11    40    41   ar
    12    41    42   ar
    13    42    43   ar
    14    43    44   ar
    15     1    27    1
    16    27    29    1
    17    29    30    1
    18    30    31    1
    19    30    33    1
    20    33    34    1
    21    34    35    1
    22    34    36    1
    23    34    37    1
    24     1    13    1
    25    13    14   ar
    26    14    15   ar
    27    15    16    1
    28    15    17   ar
    29    17    18   ar
    30    18    20    1
    31    20    21    1
    32    21    22    1
    33    21    23    1
    34    21    24    1
    35    24    25    1
    36    24    26    1
    37    18    19   ar
    38     4     5   ar
    39     5     6   ar
    40     6     7   ar
    41     7     8    1
    42     7     2   ar
    43    44    39   ar
    44    19    13   ar
    45    27    28    1
    46    31    32    1
@<TRIPOS>MOLECULE
*****
 44 46 0 0 0
SMALL
GASTEIGER

@<TRIPOS>ATOM
      1 C         141.8382  141.0953  165.3128 C.3     1  UNL1        0.0847
      2 C         142.9109  143.7949  162.6088 C.ar    1  UNL1        0.1653
      3 C         142.1995  142.6459  163.2597 C.ar    1  UNL1        0.0365
      4 C         142.5496  142.2443  164.6618 C.ar    1  UNL1       -0.0022
      5 C         143.6112  142.9917  165.4131 C.ar    1  UNL1       -0.0002
      6 C         144.3226  144.1407  164.7622 C.ar    1  UNL1        0.0325
      7 C         143.9725  144.5423  163.3601 C.ar    1  UNL1        0.1738
      8 F         144.6839  145.6913  162.7091 F       1  UNL1       -0.2010
      9 O         142.5608  144.1965  161.2066 O.3     1  UNL1       -0.4769
     10 C         140.8416  145.1821  159.5264 C.3     1  UNL1        0.0472
     11 C         141.2964  144.9577  160.9380 C.3     1  UNL1        0.1662
     12 C         140.4870  145.4945  162.0811 C.3     1  UNL1        0.0472
     13 C         140.5199  141.7565  165.0392 C.ar    1  UNL1       -0.0001
     14 C         140.2070  143.0885  165.6539 C.ar    1  UNL1        0.0271
     15 C         138.8887  143.7497  165.3804 C.ar    1  UNL1        0.1429
     16 F         138.2605  145.0408  165.8145 F       1  UNL1       -0.2041
     17 C         137.8832  143.0790  164.4921 C.ar    1  UNL1        0.0667
     18 C         138.1961  141.7470  163.8773 C.ar    1  UNL1        0.1461
     19 C         139.5143  141.0857  164.1509 C.ar    1  UNL1        0.0345
     20 O         137.1905  141.0762  162.9890 O.3     1  UNL1       -0.4263
     21 C         137.6184  140.5044  161.6700 C.3     1  UNL1        0.4723
     22 F         137.8651  141.8894  161.1496 F       1  UNL1       -0.1579
     23 F         137.3717  139.1193  162.1903 F       1  UNL1       -0.1579
     24 C         138.0463  139.9327  160.3509 C.3     1  UNL1        0.4202
     25 F         138.8954  138.6968  160.3091 F       1  UNL1       -0.1876
     26 F         137.6250  140.5967  159.0735 F       1  UNL1       -0.1876
     27 N         143.1564  140.4341  165.5863 N.3     1  UNL1       -0.2909
     28 H         143.2135  140.2974  166.5955 H       1  UNL1        0.1238
     29 C         143.4793  139.1138  164.9516 C.3     1  UNL1        0.0989
     30 C         143.7172  139.0307  163.4729 C.3     1  UNL1        0.1347
     31 O         144.8013  139.8520  162.8403 O.3     1  UNL1       -0.3827
     32 H         144.8208  139.6814  161.8857 H       1  UNL1        0.2104
     33 C         142.8708  138.1263  162.6268 C.3     1  UNL1        0.1339
     34 C         141.3826  138.1014  162.8124 C.3     1  UNL1        0.4002
     35 F         139.8944  138.0765  162.9980 F       1  UNL1       -0.1700
     36 F         141.2645  139.3797  162.0365 F       1  UNL1       -0.1700
     37 F         141.5007  136.8231  163.5883 F       1  UNL1       -0.1700
     38 C         141.1268  139.9463  165.9637 C.3     1  UNL1        0.0492
     39 C         140.8837  139.9562  167.4439 C.ar    1  UNL1       -0.0202
     40 C         139.5149  140.2598  167.9771 C.ar    1  UNL1       -0.0042
     41 C         139.2719  140.2698  169.4572 C.ar    1  UNL1       -0.0003
     42 C         140.3975  139.9761  170.4041 C.ar    1  UNL1       -0.0000
     43 C         141.7662  139.6725  169.8709 C.ar    1  UNL1       -0.0003
     44 C         142.0093  139.6626  168.3908 C.ar    1  UNL1       -0.0042
@<TRIPOS>BOND
     1    10    11    1
     2    11    12    1
     3    11     9    1
     4     9     2    1
     5     2     3   ar
     6     3     4   ar
     7     4     1    1
     8     1    38    1
     9    38    39    1
    10    39    40   ar
    11    40    41   ar
    12    41    42   ar
    13    42    43   ar
    14    43    44   ar
    15     1    27    1
    16    27    29    1
    17    29    30    1
    18    30    31    1
    19    30    33    1
    20    33    34    1
    21    34    35    1
    22    34    36    1
    23    34    37    1
    24     1    13    1
    25    13    14   ar
    26    14    15   ar
    27    15    16    1
    28    15    17   ar
    29    17    18   ar
    30    18    20    1
    31    20    21    1
    32    21    22    1
    33    21    23    1
    34    21    24    1
    35    24    25    1
    36    24    26    1
    37    18    19   ar
    38     4     5   ar
    39     5     6   ar
    40     6     7   ar
    41     7     8    1
    42     7     2   ar
    43    44    39   ar
    44    19    13   ar
    45    27    28    1
    46    31    32    1
@<TRIPOS>MOLECULE
*****
 44 46 0 0 0
SMALL
GASTEIGER

@<TRIPOS>ATOM
      1 C         141.6677  142.0986  165.2206 C.3     1  UNL1        0.0847
      2 C         138.8649  143.1877  162.6306 C.ar    1  UNL1        0.1653
      3 C         140.0235  142.4562  163.2411 C.ar    1  UNL1        0.0365
      4 C         140.5091  142.8301  164.6101 C.ar    1  UNL1       -0.0022
      5 C         139.8362  143.9354  165.3687 C.ar    1  UNL1       -0.0002
      6 C         138.6777  144.6669  164.7583 C.ar    1  UNL1        0.0325
      7 C         138.1920  144.2930  163.3892 C.ar    1  UNL1        0.1738
      8 F         137.0334  145.0245  162.7787 F       1  UNL1       -0.2010
      9 O         138.3792  142.8138  161.2615 O.3     1  UNL1       -0.4769
     10 C         139.4931  141.0823  159.6769 C.3     1  UNL1        0.0472
     11 C         138.5222  141.4023  160.7745 C.3     1  UNL1        0.1662
     12 C         137.6942  140.3107  161.3853 C.3     1  UNL1        0.0472
     13 C         140.8885  140.8181  165.1655 C.ar    1  UNL1       -0.0001
     14 C         139.6825  140.6359  166.0387 C.ar    1  UNL1        0.0271
     15 C         138.9032  139.3553  165.9835 C.ar    1  UNL1        0.1429
     16 F         137.6839  138.8462  166.6934 F       1  UNL1       -0.2041
     17 C         139.3299  138.2571  165.0551 C.ar    1  UNL1        0.0667
     18 C         140.5358  138.4394  164.1819 C.ar    1  UNL1        0.1461
     19 C         141.3151  139.7199  164.2371 C.ar    1  UNL1        0.0345
     20 O         140.9625  137.3411  163.2535 O.3     1  UNL1       -0.4263
     21 C         141.6252  137.6760  161.9502 C.3     1  UNL1        0.4723
     22 F         140.2827  137.7401  161.2841 F       1  UNL1       -0.1579
     23 F         142.9676  137.6118  162.6164 F       1  UNL1       -0.1579
     24 C         142.2879  138.0108  160.6469 C.3     1  UNL1        0.4202
     25 F         143.7846  138.0298  160.5496 F       1  UNL1       -0.1876
     26 F         141.4538  138.3265  159.4407 F       1  UNL1       -0.1876
     27 N         142.4470  143.3791  165.2758 N.3     1  UNL1       -0.2909
     28 H         142.5271  143.6329  166.2605 H       1  UNL1        0.1238
     29 C         143.8304  143.4407  164.6989 C.3     1  UNL1        0.0989
     30 C         144.0274  143.8229  163.2619 C.3     1  UNL1        0.1347
     31 O         143.6602  145.2004  162.7952 O.3     1  UNL1       -0.3827
     32 H         143.8490  145.2816  161.8472 H       1  UNL1        0.2104
     33 C         144.5916  142.8278  162.2916 C.3     1  UNL1        0.1339
     34 C         144.8152  141.4074  162.7189 C.3     1  UNL1        0.4002
     35 F         145.0388  139.9871  163.1462 F       1  UNL1       -0.1700
     36 F         146.1962  141.7645  163.1829 F       1  UNL1       -0.1700
     37 F         143.4341  141.0504  162.2549 F       1  UNL1       -0.1700
     38 C         142.8263  141.3672  165.8311 C.3     1  UNL1        0.0492
     39 C         142.8339  141.0679  167.3010 C.ar    1  UNL1       -0.0202
     40 C         143.0533  142.1738  168.2904 C.ar    1  UNL1       -0.0042
     41 C         143.0608  141.8745  169.7602 C.ar    1  UNL1       -0.0003
     42 C         142.8491  140.4693  170.2405 C.ar    1  UNL1       -0.0000
     43 C         142.6298  139.3635  169.2511 C.ar    1  UNL1       -0.0003
     44 C         142.6222  139.6628  167.7814 C.ar    1  UNL1       -0.0042
@<TRIPOS>BOND
     1    10    11    1
     2    11    12    1
     3    11     9    1
     4     9     2    1
     5     2     3   ar
     6     3     4   ar
     7     4     1    1
     8     1    38    1
     9    38    39    1
    10    39    40   ar
    11    40    41   ar
    12    41    42   ar
    13    42    43   ar
    14    43    44   ar
    15     1    27    1
    16    27    29    1
    17    29    30    1
    18    30    31    1
    19    30    33    1
    20    33    34    1
    21    34    35    1
    22    34    36    1
    23    34    37    1
    24     1    13    1
    25    13    14   ar
    26    14    15   ar
    27    15    16    1
    28    15    17   ar
    29    17    18   ar
    30    18    20    1
    31    20    21    1
    32    21    22    1
    33    21    23    1
    34    21    24    1
    35    24    25    1
    36    24    26    1
    37    18    19   ar
    38     4     5   ar
    39     5     6   ar
    40     6     7   ar
    41     7     8    1
    42     7     2   ar
    43    44    39   ar
    44    19    13   ar
    45    27    28    1
    46    31    32    1
@<TRIPOS>MOLECULE
*****
 44 46 0 0 0
SMALL
GASTEIGER

@<TRIPOS>ATOM
      1 C         141.5843  141.7776  165.6565 C.3     1  UNL1        0.0847
      2 C         138.9930  142.9874  162.9048 C.ar    1  UNL1        0.1653
      3 C         140.0821  142.2085  163.5809 C.ar    1  UNL1        0.0365
      4 C         140.4952  142.5565  164.9803 C.ar    1  UNL1       -0.0022
      5 C         139.8192  143.6835  165.7035 C.ar    1  UNL1       -0.0002
      6 C         138.7302  144.4624  165.0274 C.ar    1  UNL1        0.0325
      7 C         138.3171  144.1143  163.6280 C.ar    1  UNL1        0.1738
      8 F         137.2280  144.8933  162.9519 F       1  UNL1       -0.2010
      9 O         138.5799  142.6394  161.5054 O.3     1  UNL1       -0.4769
     10 C         137.6930  140.3079  162.2318 C.3     1  UNL1        0.0472
     11 C         138.2046  141.2279  161.1633 C.3     1  UNL1        0.1662
     12 C         138.3411  140.7365  159.7526 C.3     1  UNL1        0.0472
     13 C         140.7805  140.5205  165.5033 C.ar    1  UNL1       -0.0001
     14 C         139.5640  140.3000  166.3528 C.ar    1  UNL1        0.0271
     15 C         138.7601  139.0428  166.1995 C.ar    1  UNL1        0.1429
     16 F         137.5251  138.5085  166.8623 F       1  UNL1       -0.2041
     17 C         139.1727  138.0063  165.1969 C.ar    1  UNL1        0.0667
     18 C         140.3891  138.2268  164.3474 C.ar    1  UNL1        0.1461
     19 C         141.1930  139.4839  164.5006 C.ar    1  UNL1        0.0345
     20 O         140.8017  137.1902  163.3448 O.3     1  UNL1       -0.4263
     21 C         141.3519  137.6108  162.0142 C.3     1  UNL1        0.4723
     22 F         142.7451  137.5263  162.5636 F       1  UNL1       -0.1579
     23 F         139.9586  137.6954  161.4649 F       1  UNL1       -0.1579
     24 C         141.9020  138.0315  160.6837 C.3     1  UNL1        0.4202
     25 F         141.3917  139.2764  160.0207 F       1  UNL1       -0.1876
     26 F         142.9627  137.2071  160.0161 F       1  UNL1       -0.1876
     27 N         142.3882  143.0346  165.8096 N.3     1  UNL1       -0.2909
     28 H         142.4026  143.2554  166.8053 H       1  UNL1        0.1238
     29 C         143.8108  143.0776  165.3359 C.3     1  UNL1        0.0989
     30 C         144.1190  143.4733  163.9223 C.3     1  UNL1        0.1347
     31 O         144.7975  142.5019  163.0025 O.3     1  UNL1       -0.3827
     32 H         144.9219  142.9130  162.1327 H       1  UNL1        0.2104
     33 C         143.7486  144.8404  163.4283 C.3     1  UNL1        0.1339
     34 C         142.3813  145.0889  162.8638 C.3     1  UNL1        0.4002
     35 F         141.0140  145.3374  162.2993 F       1  UNL1       -0.1700
     36 F         142.7795  144.3962  161.5944 F       1  UNL1       -0.1700
     37 F         141.9830  145.7816  164.1333 F       1  UNL1       -0.1700
     38 C         142.6734  140.9987  166.3326 C.3     1  UNL1        0.0492
     39 C         142.6224  140.7691  167.8141 C.ar    1  UNL1       -0.0202
     40 C         142.6488  141.9366  168.7554 C.ar    1  UNL1       -0.0042
     41 C         142.5977  141.7069  170.2368 C.ar    1  UNL1       -0.0003
     42 C         142.5203  140.3096  170.7769 C.ar    1  UNL1       -0.0000
     43 C         142.4939  139.1421  169.8356 C.ar    1  UNL1       -0.0003
     44 C         142.5450  139.3718  168.3542 C.ar    1  UNL1       -0.0042
@<TRIPOS>BOND
     1    10    11    1
     2    11    12    1
     3    11     9    1
     4     9     2    1
     5     2     3   ar
     6     3     4   ar
     7     4     1    1
     8     1    38    1
     9    38    39    1
    10    39    40   ar
    11    40    41   ar
    12    41    42   ar
    13    42    43   ar
    14    43    44   ar
    15     1    27    1
    16    27    29    1
    17    29    30    1
    18    30    31    1
    19    30    33    1
    20    33    34    1
    21    34    35    1
    22    34    36    1
    23    34    37    1
    24     1    13    1
    25    13    14   ar
    26    14    15   ar
    27    15    16    1
    28    15    17   ar
    29    17    18   ar
    30    18    20    1
    31    20    21    1
    32    21    22    1
    33    21    23    1
    34    21    24    1
    35    24    25    1
    36    24    26    1
    37    18    19   ar
    38     4     5   ar
    39     5     6   ar
    40     6     7   ar
    41     7     8    1
    42     7     2   ar
    43    44    39   ar
    44    19    13   ar
    45    27    28    1
    46    31    32    1
@<TRIPOS>MOLECULE
*****
 44 46 0 0 0
SMALL
GASTEIGER

@<TRIPOS>ATOM
      1 C         141.5538  141.4323  165.5621 C.3     1  UNL1        0.0847
      2 C         142.7226  143.9565  162.7315 C.ar    1  UNL1        0.1653
      3 C         141.9468  142.8920  163.4490 C.ar    1  UNL1        0.0365
      4 C         142.3297  142.4968  164.8444 C.ar    1  UNL1       -0.0022
      5 C         143.4885  143.1659  165.5222 C.ar    1  UNL1       -0.0002
      6 C         144.2643  144.2304  164.8047 C.ar    1  UNL1        0.0325
      7 C         143.8814  144.6256  163.4093 C.ar    1  UNL1        0.1738
      8 F         144.6573  145.6901  162.6917 F       1  UNL1       -0.2010
      9 O         142.3397  144.3518  161.3360 O.3     1  UNL1       -0.4769
     10 C         140.5447  145.2758  159.7009 C.3     1  UNL1        0.0472
     11 C         141.0763  145.1236  161.0952 C.3     1  UNL1        0.1662
     12 C         140.3444  145.7431  162.2487 C.3     1  UNL1        0.0472
     13 C         140.2734  142.1343  165.2192 C.ar    1  UNL1       -0.0001
     14 C         139.9521  143.4578  165.8479 C.ar    1  UNL1        0.0271
     15 C         138.6716  144.1598  165.5050 C.ar    1  UNL1        0.1429
     16 F         138.0470  145.4552  165.9314 F       1  UNL1       -0.2041
     17 C         137.7125  143.5385  164.5335 C.ar    1  UNL1        0.0667
     18 C         138.0338  142.2150  163.9048 C.ar    1  UNL1        0.1461
     19 C         139.3142  141.5130  164.2476 C.ar    1  UNL1        0.0345
     20 O         137.0746  141.5936  162.9332 O.3     1  UNL1       -0.4263
     21 C         137.5935  140.8596  161.7324 C.3     1  UNL1        0.4723
     22 F         137.3765  139.5534  162.4371 F       1  UNL1       -0.1579
     23 F         137.8104  142.1660  161.0277 F       1  UNL1       -0.1579
     24 C         138.1124  140.1256  160.5316 C.3     1  UNL1        0.4202
     25 F         137.6967  140.5516  159.1547 F       1  UNL1       -0.1876
     26 F         139.0470  138.9656  160.7077 F       1  UNL1       -0.1876
     27 N         142.8342  140.7302  165.9049 N.3     1  UNL1       -0.2909
     28 H         142.8602  140.6448  166.9210 H       1  UNL1        0.1238
     29 C         143.1136  139.3655  165.3484 C.3     1  UNL1        0.0989
     30 C         143.2229  139.1683  163.8654 C.3     1  UNL1        0.1347
     31 O         142.0157  138.7656  163.0714 O.3     1  UNL1       -0.3827
     32 H         142.2574  138.6817  162.1357 H       1  UNL1        0.2104
     33 C         144.5395  139.3736  163.1765 C.3     1  UNL1        0.1339
     34 C         144.9899  140.7585  162.8171 C.3     1  UNL1        0.4002
     35 F         145.4403  142.1434  162.4577 F       1  UNL1       -0.1700
     36 F         145.8032  140.8207  164.0759 F       1  UNL1       -0.1700
     37 F         144.1765  140.6964  161.5582 F       1  UNL1       -0.1700
     38 C         140.7780  140.3678  166.2797 C.3     1  UNL1        0.0492
     39 C         140.4253  140.5437  167.7270 C.ar    1  UNL1       -0.0202
     40 C         141.3406  141.3115  168.6340 C.ar    1  UNL1       -0.0042
     41 C         140.9879  141.4873  170.0813 C.ar    1  UNL1       -0.0003
     42 C         139.7200  140.8953  170.6216 C.ar    1  UNL1       -0.0000
     43 C         138.8047  140.1275  169.7146 C.ar    1  UNL1       -0.0003
     44 C         139.1574  139.9517  168.2673 C.ar    1  UNL1       -0.0042
@<TRIPOS>BOND
     1    10    11    1
     2    11    12    1
     3    11     9    1
     4     9     2    1
     5     2     3   ar
     6     3     4   ar
     7     4     1    1
     8     1    38    1
     9    38    39    1
    10    39    40   ar
    11    40    41   ar
    12    41    42   ar
    13    42    43   ar
    14    43    44   ar
    15     1    27    1
    16    27    29    1
    17    29    30    1
    18    30    31    1
    19    30    33    1
    20    33    34    1
    21    34    35    1
    22    34    36    1
    23    34    37    1
    24     1    13    1
    25    13    14   ar
    26    14    15   ar
    27    15    16    1
    28    15    17   ar
    29    17    18   ar
    30    18    20    1
    31    20    21    1
    32    21    22    1
    33    21    23    1
    34    21    24    1
    35    24    25    1
    36    24    26    1
    37    18    19   ar
    38     4     5   ar
    39     5     6   ar
    40     6     7   ar
    41     7     8    1
    42     7     2   ar
    43    44    39   ar
    44    19    13   ar
    45    27    28    1
    46    31    32    1
@<TRIPOS>MOLECULE
*****
 44 46 0 0 0
SMALL
GASTEIGER

@<TRIPOS>ATOM
      1 C         141.4616  141.1505  166.6764 C.3     1  UNL1        0.0847
      2 C         138.9276  138.2878  165.6114 C.ar    1  UNL1        0.1653
      3 C         140.0814  139.2455  165.5735 C.ar    1  UNL1        0.0365
      4 C         140.3077  140.1927  166.7143 C.ar    1  UNL1       -0.0022
      5 C         139.3802  140.1821  167.8932 C.ar    1  UNL1       -0.0002
      6 C         138.2264  139.2244  167.9311 C.ar    1  UNL1        0.0325
      7 C         138.0001  138.2773  166.7903 C.ar    1  UNL1        0.1738
      8 F         136.8463  137.3195  166.8282 F       1  UNL1       -0.2010
      9 O         138.7012  137.3406  164.4705 O.3     1  UNL1       -0.4769
     10 C         138.0162  138.2851  162.1492 C.3     1  UNL1        0.0472
     11 C         139.0676  137.7474  163.0740 C.3     1  UNL1        0.1662
     12 C         140.4856  137.6165  162.6023 C.3     1  UNL1        0.0472
     13 C         140.6741  142.0639  165.7846 C.ar    1  UNL1       -0.0001
     14 C         139.9871  143.2662  166.3613 C.ar    1  UNL1        0.0271
     15 C         139.1996  144.1798  165.4694 C.ar    1  UNL1        0.1429
     16 F         138.4090  145.4336  165.6993 F       1  UNL1       -0.2041
     17 C         139.0991  143.8910  164.0010 C.ar    1  UNL1        0.0667
     18 C         139.7860  142.6887  163.4243 C.ar    1  UNL1        0.1461
     19 C         140.5735  141.7752  164.3161 C.ar    1  UNL1        0.0345
     20 O         139.6855  142.3999  161.9557 O.3     1  UNL1       -0.4263
     21 C         140.8374  141.7636  161.2359 C.3     1  UNL1        0.4723
     22 F         141.6914  142.9566  161.5480 F       1  UNL1       -0.1579
     23 F         139.9833  140.5706  160.9238 F       1  UNL1       -0.1579
     24 C         141.9892  141.1273  160.5161 C.3     1  UNL1        0.4202
     25 F         142.9802  140.2951  161.2746 F       1  UNL1       -0.1876
     26 F         142.1503  141.3233  159.0376 F       1  UNL1       -0.1876
     27 N         142.2491  140.2370  167.5682 N.3     1  UNL1       -0.2909
     28 H         142.8915  139.7206  166.9673 H       1  UNL1        0.1238
     29 C         143.0674  140.8055  168.6895 C.3     1  UNL1        0.0989
     30 C         142.6012  140.6587  170.1075 C.3     1  UNL1        0.1347
     31 O         143.3438  139.7607  171.0521 O.3     1  UNL1       -0.3827
     32 H         142.9142  139.7799  171.9216 H       1  UNL1        0.2104
     33 C         141.3922  141.4098  170.5812 C.3     1  UNL1        0.1339
     34 C         141.2445  142.8688  170.2656 C.3     1  UNL1        0.4002
     35 F         141.0968  144.3277  169.9500 F       1  UNL1       -0.1700
     36 F         142.6158  143.1267  170.8159 F       1  UNL1       -0.1700
     37 F         139.8731  142.6109  169.7152 F       1  UNL1       -0.1700
     38 C         142.6154  142.1081  166.6385 C.3     1  UNL1        0.0492
     39 C         143.4963  142.1736  165.4261 C.ar    1  UNL1       -0.0202
     40 C         143.6993  143.4793  164.7162 C.ar    1  UNL1       -0.0042
     41 C         144.5801  143.5447  163.5039 C.ar    1  UNL1       -0.0003
     42 C         145.2579  142.3045  163.0014 C.ar    1  UNL1       -0.0000
     43 C         145.0550  140.9989  163.7114 C.ar    1  UNL1       -0.0003
     44 C         144.1741  140.9334  164.9237 C.ar    1  UNL1       -0.0042
@<TRIPOS>BOND
     1    10    11    1
     2    11    12    1
     3    11     9    1
     4     9     2    1
     5     2     3   ar
     6     3     4   ar
     7     4     1    1
     8     1    38    1
     9    38    39    1
    10    39    40   ar
    11    40    41   ar
    12    41    42   ar
    13    42    43   ar
    14    43    44   ar
    15     1    27    1
    16    27    29    1
    17    29    30    1
    18    30    31    1
    19    30    33    1
    20    33    34    1
    21    34    35    1
    22    34    36    1
    23    34    37    1
    24     1    13    1
    25    13    14   ar
    26    14    15   ar
    27    15    16    1
    28    15    17   ar
    29    17    18   ar
    30    18    20    1
    31    20    21    1
    32    21    22    1
    33    21    23    1
    34    21    24    1
    35    24    25    1
    36    24    26    1
    37    18    19   ar
    38     4     5   ar
    39     5     6   ar
    40     6     7   ar
    41     7     8    1
    42     7     2   ar
    43    44    39   ar
    44    19    13   ar
    45    27    28    1
    46    31    32    1
@<TRIPOS>MOLECULE
*****
 44 46 0 0 0
SMALL
GASTEIGER

@<TRIPOS>ATOM
      1 C         141.1948  141.5877  166.0620 C.3     1  UNL1        0.0847
      2 C         139.5070  138.2006  164.8668 C.ar    1  UNL1        0.1653
      3 C         140.4070  139.4000  164.9029 C.ar    1  UNL1        0.0365
      4 C         140.2947  140.3882  166.0258 C.ar    1  UNL1       -0.0022
      5 C         139.2825  140.1770  167.1124 C.ar    1  UNL1       -0.0002
      6 C         138.3826  138.9776  167.0763 C.ar    1  UNL1        0.0325
      7 C         138.4948  137.9894  165.9534 C.ar    1  UNL1        0.1738
      8 F         137.5948  136.7899  165.9172 F       1  UNL1       -0.2010
      9 O         139.6192  137.2123  163.7439 O.3     1  UNL1       -0.4769
     10 C         138.8922  138.1149  161.4187 C.3     1  UNL1        0.0472
     11 C         139.9733  137.6819  162.3640 C.3     1  UNL1        0.1662
     12 C         141.4086  137.7186  161.9295 C.3     1  UNL1        0.0472
     13 C         140.0684  142.4477  165.5703 C.ar    1  UNL1       -0.0001
     14 C         139.6722  143.6749  166.3365 C.ar    1  UNL1        0.0271
     15 C         138.5458  144.5350  165.8448 C.ar    1  UNL1        0.1429
     16 F         137.9021  145.7945  166.3438 F       1  UNL1       -0.2041
     17 C         137.8157  144.1678  164.5870 C.ar    1  UNL1        0.0667
     18 C         138.2119  142.9406  163.8209 C.ar    1  UNL1        0.1461
     19 C         139.3383  142.0806  164.3125 C.ar    1  UNL1        0.0345
     20 O         137.4818  142.5734  162.5630 O.3     1  UNL1       -0.4263
     21 C         138.2388  142.3998  161.2798 C.3     1  UNL1        0.4723
     22 F         137.5910  141.0621  161.0785 F       1  UNL1       -0.1579
     23 F         138.8867  143.7377  161.4811 F       1  UNL1       -0.1579
     24 C         138.9959  142.2263  159.9966 C.3     1  UNL1        0.4202
     25 F         138.9322  143.2878  158.9387 F       1  UNL1       -0.1876
     26 F         139.8168  140.9911  159.7712 F       1  UNL1       -0.1876
     27 N         142.3211  140.7277  166.5536 N.3     1  UNL1       -0.2909
     28 H         143.0572  140.7756  165.8492 H       1  UNL1        0.1238
     29 C         142.9669  141.0209  167.8754 C.3     1  UNL1        0.0989
     30 C         142.4645  140.3519  169.1204 C.3     1  UNL1        0.1347
     31 O         142.9424  138.9756  169.4773 O.3     1  UNL1       -0.3827
     32 H         142.5235  138.6925  170.3051 H       1  UNL1        0.2104
     33 C         141.4841  141.0593  170.0085 C.3     1  UNL1        0.1339
     34 C         141.3600  142.5529  169.9487 C.3     1  UNL1        0.4002
     35 F         141.2359  144.0465  169.8889 F       1  UNL1       -0.1700
     36 F         140.0319  142.4152  169.2653 F       1  UNL1       -0.1700
     37 F         142.6882  142.6907  170.6322 F       1  UNL1       -0.1700
     38 C         142.0948  142.7872  166.0982 C.3     1  UNL1        0.0492
     39 C         142.8810  143.1719  164.8800 C.ar    1  UNL1       -0.0202
     40 C         143.9393  142.2512  164.3487 C.ar    1  UNL1       -0.0042
     41 C         144.7255  142.6360  163.1307 C.ar    1  UNL1       -0.0003
     42 C         144.4534  143.9415  162.4439 C.ar    1  UNL1       -0.0000
     43 C         143.3952  144.8622  162.9752 C.ar    1  UNL1       -0.0003
     44 C         142.6090  144.4774  164.1933 C.ar    1  UNL1       -0.0042
@<TRIPOS>BOND
     1    10    11    1
     2    11    12    1
     3    11     9    1
     4     9     2    1
     5     2     3   ar
     6     3     4   ar
     7     4     1    1
     8     1    38    1
     9    38    39    1
    10    39    40   ar
    11    40    41   ar
    12    41    42   ar
    13    42    43   ar
    14    43    44   ar
    15     1    27    1
    16    27    29    1
    17    29    30    1
    18    30    31    1
    19    30    33    1
    20    33    34    1
    21    34    35    1
    22    34    36    1
    23    34    37    1
    24     1    13    1
    25    13    14   ar
    26    14    15   ar
    27    15    16    1
    28    15    17   ar
    29    17    18   ar
    30    18    20    1
    31    20    21    1
    32    21    22    1
    33    21    23    1
    34    21    24    1
    35    24    25    1
    36    24    26    1
    37    18    19   ar
    38     4     5   ar
    39     5     6   ar
    40     6     7   ar
    41     7     8    1
    42     7     2   ar
    43    44    39   ar
    44    19    13   ar
    45    27    28    1
    46    31    32    1
@<TRIPOS>MOLECULE
*****
 44 46 0 0 0
SMALL
GASTEIGER

@<TRIPOS>ATOM
      1 C         141.0024  140.8045  164.7760 C.3     1  UNL1        0.0847
      2 C         139.3575  139.7836  168.2404 C.ar    1  UNL1        0.1653
      3 C         140.3291  140.3393  167.2419 C.ar    1  UNL1        0.0365
      4 C         140.0307  140.2489  165.7747 C.ar    1  UNL1       -0.0022
      5 C         138.7607  139.6028  165.3060 C.ar    1  UNL1       -0.0002
      6 C         137.7891  139.0472  166.3046 C.ar    1  UNL1        0.0325
      7 C         138.0875  139.1376  167.7718 C.ar    1  UNL1        0.1738
      8 F         137.1158  138.5819  168.7705 F       1  UNL1       -0.2010
      9 O         139.6559  139.8740  169.7077 O.3     1  UNL1       -0.4769
     10 C         141.8126  140.8467  170.7813 C.3     1  UNL1        0.0472
     11 C         140.4254  141.0438  170.2459 C.3     1  UNL1        0.1662
     12 C         139.8075  142.4107  170.2486 C.3     1  UNL1        0.0472
     13 C         140.0197  141.8797  164.4181 C.ar    1  UNL1       -0.0001
     14 C         139.6839  142.9505  165.4134 C.ar    1  UNL1        0.0271
     15 C         138.7011  144.0257  165.0553 C.ar    1  UNL1        0.1429
     16 F         138.1476  145.2155  165.7820 F       1  UNL1       -0.2041
     17 C         138.0542  144.0301  163.7020 C.ar    1  UNL1        0.0667
     18 C         138.3900  142.9593  162.7067 C.ar    1  UNL1        0.1461
     19 C         139.3727  141.8841  163.0647 C.ar    1  UNL1        0.0345
     20 O         137.7430  142.9638  161.3534 O.3     1  UNL1       -0.4263
     21 C         138.5299  142.5521  160.1446 C.3     1  UNL1        0.4723
     22 F         137.7847  141.2510  160.1026 F       1  UNL1       -0.1579
     23 F         139.2750  143.8533  160.1865 F       1  UNL1       -0.1579
     24 C         139.3167  142.1404  158.9357 C.3     1  UNL1        0.4202
     25 F         139.7167  143.1655  157.9163 F       1  UNL1       -0.1876
     26 F         139.7037  140.7036  158.7463 F       1  UNL1       -0.1876
     27 N         141.9851  139.7293  165.1340 N.3     1  UNL1       -0.2909
     28 H         141.5634  139.1833  165.8853 H       1  UNL1        0.1238
     29 C         142.4404  138.7519  164.0912 C.3     1  UNL1        0.0989
     30 C         141.5387  137.6292  163.6710 C.3     1  UNL1        0.1347
     31 O         141.2652  136.4943  164.6129 O.3     1  UNL1       -0.3827
     32 H         140.6678  135.8587  164.1885 H       1  UNL1        0.2104
     33 C         140.9105  137.6414  162.3089 C.3     1  UNL1        0.1339
     34 C         139.5744  138.2920  162.1050 C.3     1  UNL1        0.4002
     35 F         138.2384  138.9425  161.9011 F       1  UNL1       -0.1700
     36 F         138.9297  137.2321  162.9481 F       1  UNL1       -0.1700
     37 F         140.2192  139.3519  161.2618 F       1  UNL1       -0.1700
     38 C         141.9740  141.3601  163.7774 C.3     1  UNL1        0.0492
     39 C         142.7552  142.5993  164.1004 C.ar    1  UNL1       -0.0202
     40 C         143.7350  142.5935  165.2361 C.ar    1  UNL1       -0.0042
     41 C         144.5162  143.8326  165.5590 C.ar    1  UNL1       -0.0003
     42 C         144.3175  145.0775  164.7462 C.ar    1  UNL1       -0.0000
     43 C         143.3378  145.0833  163.6104 C.ar    1  UNL1       -0.0003
     44 C         142.5566  143.8442  163.2876 C.ar    1  UNL1       -0.0042
@<TRIPOS>BOND
     1    10    11    1
     2    11    12    1
     3    11     9    1
     4     9     2    1
     5     2     3   ar
     6     3     4   ar
     7     4     1    1
     8     1    38    1
     9    38    39    1
    10    39    40   ar
    11    40    41   ar
    12    41    42   ar
    13    42    43   ar
    14    43    44   ar
    15     1    27    1
    16    27    29    1
    17    29    30    1
    18    30    31    1
    19    30    33    1
    20    33    34    1
    21    34    35    1
    22    34    36    1
    23    34    37    1
    24     1    13    1
    25    13    14   ar
    26    14    15   ar
    27    15    16    1
    28    15    17   ar
    29    17    18   ar
    30    18    20    1
    31    20    21    1
    32    21    22    1
    33    21    23    1
    34    21    24    1
    35    24    25    1
    36    24    26    1
    37    18    19   ar
    38     4     5   ar
    39     5     6   ar
    40     6     7   ar
    41     7     8    1
    42     7     2   ar
    43    44    39   ar
    44    19    13   ar
    45    27    28    1
    46    31    32    1
@<TRIPOS>MOLECULE
*****
 44 46 0 0 0
SMALL
GASTEIGER

@<TRIPOS>ATOM
      1 C         140.8940  142.0011  165.6915 C.3     1  UNL1        0.0847
      2 C         142.7535  142.7034  162.2566 C.ar    1  UNL1        0.1653
      3 C         141.7212  142.2374  163.2400 C.ar    1  UNL1        0.0365
      4 C         141.9263  142.4672  164.7080 C.ar    1  UNL1       -0.0022
      5 C         143.1636  143.1631  165.1926 C.ar    1  UNL1       -0.0002
      6 C         144.1959  143.6291  164.2091 C.ar    1  UNL1        0.0325
      7 C         143.9908  143.3993  162.7411 C.ar    1  UNL1        0.1738
      8 F         145.0231  143.8653  161.7576 F       1  UNL1       -0.2010
      9 O         142.5484  142.4736  160.7885 O.3     1  UNL1       -0.4769
     10 C         141.4539  144.8114  160.4944 C.3     1  UNL1        0.0472
     11 C         141.6978  143.4189  159.9930 C.3     1  UNL1        0.1662
     12 C         141.0910  142.9717  158.6961 C.3     1  UNL1        0.0472
     13 C         141.3907  140.5933  165.5459 C.ar    1  UNL1       -0.0001
     14 C         142.6634  140.1736  166.2197 C.ar    1  UNL1        0.0271
     15 C         143.1602  138.7656  166.0740 C.ar    1  UNL1        0.1429
     16 F         144.3560  138.0237  166.5930 F       1  UNL1       -0.2041
     17 C         142.3842  137.7776  165.2545 C.ar    1  UNL1        0.0667
     18 C         141.1115  138.1974  164.5807 C.ar    1  UNL1        0.1461
     19 C         140.6148  139.6052  164.7263 C.ar    1  UNL1        0.0345
     20 O         140.3356  137.2092  163.7612 O.3     1  UNL1       -0.4263
     21 C         139.5374  137.6768  162.5804 C.3     1  UNL1        0.4723
     22 F         140.7900  137.7372  161.7575 F       1  UNL1       -0.1579
     23 F         138.2847  137.6164  163.4034 F       1  UNL1       -0.1579
     24 C         138.7391  138.1443  161.3997 C.3     1  UNL1        0.4202
     25 F         139.3763  138.2134  160.0435 F       1  UNL1       -0.1876
     26 F         137.3037  138.5428  161.5751 F       1  UNL1       -0.1876
     27 N         140.3973  143.4089  165.8372 N.3     1  UNL1       -0.2909
     28 H         141.0521  144.0060  165.3321 H       1  UNL1        0.1238
     29 C         139.0226  143.7725  165.3593 C.3     1  UNL1        0.0989
     30 C         138.8425  144.4295  164.0230 C.3     1  UNL1        0.1347
     31 O         139.7866  145.5097  163.5850 O.3     1  UNL1       -0.3827
     32 H         139.5310  145.8248  162.7039 H       1  UNL1        0.2104
     33 C         137.7183  144.0063  163.1246 C.3     1  UNL1        0.1339
     34 C         137.8099  142.7158  162.3656 C.3     1  UNL1        0.4002
     35 F         137.9015  141.4252  161.6066 F       1  UNL1       -0.1700
     36 F         136.9713  142.0416  163.4107 F       1  UNL1       -0.1700
     37 F         138.6485  143.3899  161.3204 F       1  UNL1       -0.1700
     38 C         139.8618  141.5351  166.6750 C.3     1  UNL1        0.0492
     39 C         140.2058  141.4327  168.1315 C.ar    1  UNL1       -0.0202
     40 C         139.7769  140.2314  168.9207 C.ar    1  UNL1       -0.0042
     41 C         140.1210  140.1289  170.3771 C.ar    1  UNL1       -0.0003
     42 C         140.8939  141.2278  171.0442 C.ar    1  UNL1       -0.0000
     43 C         141.3228  142.4291  170.2550 C.ar    1  UNL1       -0.0003
     44 C         140.9787  142.5315  168.7986 C.ar    1  UNL1       -0.0042
@<TRIPOS>BOND
     1    10    11    1
     2    11    12    1
     3    11     9    1
     4     9     2    1
     5     2     3   ar
     6     3     4   ar
     7     4     1    1
     8     1    38    1
     9    38    39    1
    10    39    40   ar
    11    40    41   ar
    12    41    42   ar
    13    42    43   ar
    14    43    44   ar
    15     1    27    1
    16    27    29    1
    17    29    30    1
    18    30    31    1
    19    30    33    1
    20    33    34    1
    21    34    35    1
    22    34    36    1
    23    34    37    1
    24     1    13    1
    25    13    14   ar
    26    14    15   ar
    27    15    16    1
    28    15    17   ar
    29    17    18   ar
    30    18    20    1
    31    20    21    1
    32    21    22    1
    33    21    23    1
    34    21    24    1
    35    24    25    1
    36    24    26    1
    37    18    19   ar
    38     4     5   ar
    39     5     6   ar
    40     6     7   ar
    41     7     8    1
    42     7     2   ar
    43    44    39   ar
    44    19    13   ar
    45    27    28    1
    46    31    32    1
