@<TRIPOS>MOLECULE
*****
 30 34 0 0 0
SMALL
GASTEIGER

@<TRIPOS>ATOM
      1 N         143.3982  142.3219  163.9507 N.3     1  UNL1       -0.2725
      2 C         143.9248  142.9986  165.1814 C.3     1  UNL1        0.0738
      3 C         143.5451  142.4868  166.5394 C.3     1  UNL1        0.0376
      4 C         142.6388  141.2984  166.6665 C.3     1  UNL1        0.0841
      5 C         142.1122  140.6217  165.4357 C.3     1  UNL1        0.0376
      6 C         142.4919  141.1334  164.0779 C.3     1  UNL1        0.0738
      7 N         142.2590  140.7866  168.0244 N.am    1  UNL1       -0.2422
      8 C         142.5990  139.4375  168.5849 C.2     1  UNL1        0.3310
      9 O         143.3783  138.3632  167.8860 O.2     1  UNL1       -0.2501
     10 N         142.0228  139.3511  169.9671 N.am    1  UNL1       -0.1630
     11 C         141.3267  140.6470  170.2609 C.2     1  UNL1        0.0908
     12 C         140.5788  141.1337  171.4666 C.3     1  UNL1        0.1696
     13 N         139.9768  142.5077  171.4716 N.2     1  UNL1       -0.2626
     14 C         140.1229  143.3949  170.2709 C.2     1  UNL1        0.0949
     15 C         140.8708  142.9081  169.0652 C.2     1  UNL1        0.0362
     16 C         141.4727  141.5342  169.0602 C.2     1  UNL1        0.0700
     17 C         143.7779  142.8336  162.5928 C.3     1  UNL1        0.0739
     18 C         143.8202  144.3103  162.3327 C.3     1  UNL1        0.0392
     19 C         142.5737  145.1327  162.4738 C.3     1  UNL1        0.0998
     20 O         142.2224  144.8093  159.5120 O.2     1  UNL1       -0.2705
     21 C         141.0982  144.4632  160.4429 C.2     1  UNL1        0.2739
     22 C         139.7984  143.9553  159.8928 C.3     1  UNL1        0.2900
     23 O         138.6742  143.6092  160.8236 O.3     1  UNL1       -0.4643
     24 C         138.8498  143.7709  162.3045 C.ar    1  UNL1        0.1528
     25 C         137.7257  143.4248  163.2353 C.ar    1  UNL1        0.0382
     26 C         137.9013  143.5865  164.7161 C.ar    1  UNL1        0.0032
     27 C         139.2011  144.0944  165.2662 C.ar    1  UNL1        0.0015
     28 C         140.3253  144.4405  164.3354 C.ar    1  UNL1        0.0180
     29 C         140.1496  144.2788  162.8546 C.ar    1  UNL1        0.0881
     30 N         141.2738  144.6249  161.9237 N.am    1  UNL1       -0.2529
@<TRIPOS>BOND
     1    20    21    2
     2    21    22    1
     3    22    23    1
     4    23    24    1
     5    24    25   ar
     6    25    26   ar
     7    26    27   ar
     8    27    28   ar
     9    28    29   ar
    10    29    30    1
    11    30    19    1
    12    19    18    1
    13    18    17    1
    14    17     1    1
    15     1     2    1
    16     2     3    1
    17     3     4    1
    18     4     7    1
    19     7     8   am
    20     8     9    2
    21     8    10    1
    22    10    11    2
    23    11    12    1
    24    12    13    1
    25    13    14    2
    26    14    15    1
    27    15    16    2
    28     4     5    1
    29     5     6    1
    30    30    21   am
    31     6     1    1
    32    29    24   ar
    33    16     7    1
    34    16    11    1
@<TRIPOS>MOLECULE
*****
 30 34 0 0 0
SMALL
GASTEIGER

@<TRIPOS>ATOM
      1 N         140.9849  140.1461  163.0471 N.3     1  UNL1       -0.2725
      2 C         139.9257  139.8843  164.0764 C.3     1  UNL1        0.0738
      3 C         140.2630  139.9609  165.5360 C.3     1  UNL1        0.0376
      4 C         141.6595  140.2995  165.9663 C.3     1  UNL1        0.0841
      5 C         142.7187  140.5613  164.9369 C.3     1  UNL1        0.0376
      6 C         142.3814  140.4847  163.4774 C.3     1  UNL1        0.0738
      7 N         141.9968  140.3761  167.4258 N.am    1  UNL1       -0.2422
      8 C         142.8614  139.4121  168.1827 C.2     1  UNL1        0.3310
      9 O         143.5406  138.2020  167.6130 O.2     1  UNL1       -0.2501
     10 N         142.9277  139.8704  169.6094 N.am    1  UNL1       -0.1630
     11 C         142.1040  141.1178  169.7343 C.2     1  UNL1        0.0908
     12 C         141.8036  142.0094  170.9025 C.3     1  UNL1        0.1696
     13 N         140.9277  143.2136  170.7212 N.2     1  UNL1       -0.2626
     14 C         140.3524  143.5262  169.3716 C.2     1  UNL1        0.0949
     15 C         140.6529  142.6345  168.2034 C.2     1  UNL1        0.0362
     16 C         141.5287  141.4304  168.3848 C.2     1  UNL1        0.0700
     17 C         140.6476  140.0695  161.5876 C.3     1  UNL1        0.0739
     18 C         141.2625  141.0404  160.6237 C.3     1  UNL1        0.0392
     19 C         140.7947  142.4654  160.5936 C.3     1  UNL1        0.0998
     20 O         143.4919  143.7341  160.9343 O.2     1  UNL1       -0.2705
     21 C         142.4060  144.0002  161.9344 C.2     1  UNL1        0.2739
     22 C         142.6688  144.9007  163.1050 C.3     1  UNL1        0.2900
     23 O         141.5831  145.1668  164.1051 O.3     1  UNL1       -0.4643
     24 C         140.2345  144.5325  163.9348 C.ar    1  UNL1        0.1528
     25 C         139.1488  144.7986  164.9349 C.ar    1  UNL1        0.0382
     26 C         137.8003  144.1643  164.7645 C.ar    1  UNL1        0.0032
     27 C         137.5375  143.2638  163.5940 C.ar    1  UNL1        0.0015
     28 C         138.6232  142.9977  162.5939 C.ar    1  UNL1        0.0180
     29 C         139.9717  143.6320  162.7642 C.ar    1  UNL1        0.0881
     30 N         141.0575  143.3659  161.7641 N.am    1  UNL1       -0.2529
@<TRIPOS>BOND
     1    20    21    2
     2    21    22    1
     3    22    23    1
     4    23    24    1
     5    24    25   ar
     6    25    26   ar
     7    26    27   ar
     8    27    28   ar
     9    28    29   ar
    10    29    30    1
    11    30    19    1
    12    19    18    1
    13    18    17    1
    14    17     1    1
    15     1     2    1
    16     2     3    1
    17     3     4    1
    18     4     7    1
    19     7     8   am
    20     8     9    2
    21     8    10    1
    22    10    11    2
    23    11    12    1
    24    12    13    1
    25    13    14    2
    26    14    15    1
    27    15    16    2
    28     4     5    1
    29     5     6    1
    30    30    21   am
    31     6     1    1
    32    29    24   ar
    33    16     7    1
    34    16    11    1
@<TRIPOS>MOLECULE
*****
 30 34 0 0 0
SMALL
GASTEIGER

@<TRIPOS>ATOM
      1 N         140.1552  140.0528  163.5835 N.3     1  UNL1       -0.2725
      2 C         141.5406  140.5476  163.8766 C.3     1  UNL1        0.0738
      3 C         142.0627  140.5263  165.2827 C.3     1  UNL1        0.0376
      4 C         141.1995  140.0102  166.3956 C.3     1  UNL1        0.0841
      5 C         139.8141  139.5153  166.1024 C.3     1  UNL1        0.0376
      6 C         139.2920  139.5367  164.6964 C.3     1  UNL1        0.0738
      7 N         141.7216  139.9888  167.8016 N.am    1  UNL1       -0.2422
      8 C         142.8530  139.1449  168.3092 C.2     1  UNL1        0.3310
      9 O         143.6609  138.1741  167.5000 O.2     1  UNL1       -0.2501
     10 N         143.0347  139.4422  169.7682 N.am    1  UNL1       -0.1630
     11 C         142.0155  140.4699  170.1623 C.2     1  UNL1        0.0908
     12 C         141.7217  141.1416  171.4708 C.3     1  UNL1        0.1696
     13 N         140.6162  142.1513  171.5640 N.2     1  UNL1       -0.2626
     14 C         139.8047  142.4891  170.3485 C.2     1  UNL1        0.0949
     15 C         140.0986  141.8173  169.0399 C.2     1  UNL1        0.0362
     16 C         141.2040  140.8077  168.9468 C.2     1  UNL1        0.0700
     17 C         139.6331  140.0741  162.1775 C.3     1  UNL1        0.0739
     18 C         140.5170  140.5338  161.0561 C.3     1  UNL1        0.0392
     19 C         140.4402  141.9521  160.5737 C.3     1  UNL1        0.0998
     20 O         137.6505  142.8329  161.2388 O.2     1  UNL1       -0.2705
     21 C         138.8242  143.5069  161.8857 C.2     1  UNL1        0.2739
     22 C         138.6030  144.6212  162.8651 C.3     1  UNL1        0.2900
     23 O         139.7765  145.2951  163.5120 O.3     1  UNL1       -0.4643
     24 C         141.1714  144.8548  163.1795 C.ar    1  UNL1        0.1528
     25 C         142.3450  145.5287  163.8264 C.ar    1  UNL1        0.0382
     26 C         143.7397  145.0883  163.4938 C.ar    1  UNL1        0.0032
     27 C         143.9609  143.9740  162.5144 C.ar    1  UNL1        0.0015
     28 C         142.7874  143.3000  161.8675 C.ar    1  UNL1        0.0180
     29 C         141.3926  143.7404  162.2001 C.ar    1  UNL1        0.0881
     30 N         140.2190  143.0664  161.5532 N.am    1  UNL1       -0.2529
@<TRIPOS>BOND
     1    20    21    2
     2    21    22    1
     3    22    23    1
     4    23    24    1
     5    24    25   ar
     6    25    26   ar
     7    26    27   ar
     8    27    28   ar
     9    28    29   ar
    10    29    30    1
    11    30    19    1
    12    19    18    1
    13    18    17    1
    14    17     1    1
    15     1     2    1
    16     2     3    1
    17     3     4    1
    18     4     7    1
    19     7     8   am
    20     8     9    2
    21     8    10    1
    22    10    11    2
    23    11    12    1
    24    12    13    1
    25    13    14    2
    26    14    15    1
    27    15    16    2
    28     4     5    1
    29     5     6    1
    30    30    21   am
    31     6     1    1
    32    29    24   ar
    33    16     7    1
    34    16    11    1
@<TRIPOS>MOLECULE
*****
 30 34 0 0 0
SMALL
GASTEIGER

@<TRIPOS>ATOM
      1 N         142.6875  142.3592  163.3971 N.3     1  UNL1       -0.2725
      2 C         142.0015  143.3570  164.2825 C.3     1  UNL1        0.0738
      3 C         141.4096  142.9181  165.5891 C.3     1  UNL1        0.0376
      4 C         141.5037  141.4816  166.0102 C.3     1  UNL1        0.0841
      5 C         142.1898  140.4838  165.1248 C.3     1  UNL1        0.0376
      6 C         142.7817  140.9226  163.8183 C.3     1  UNL1        0.0738
      7 N         140.9119  141.0427  167.3168 N.am    1  UNL1       -0.2422
      8 C         139.7960  140.0557  167.4920 C.2     1  UNL1        0.3310
      9 O         139.0762  139.3342  166.3914 O.2     1  UNL1       -0.2501
     10 N         139.5264  139.9168  168.9610 N.am    1  UNL1       -0.1630
     11 C         140.4756  140.8180  169.6937 C.2     1  UNL1        0.0908
     12 C         140.6708  141.0948  171.1549 C.3     1  UNL1        0.1696
     13 N         141.7224  142.0676  171.6001 N.2     1  UNL1       -0.2626
     14 C         142.5787  142.7635  170.5838 C.2     1  UNL1        0.0949
     15 C         142.3834  142.4866  169.1226 C.2     1  UNL1        0.0362
     16 C         141.3319  141.5139  168.6775 C.2     1  UNL1        0.0700
     17 C         143.2794  142.7980  162.0906 C.3     1  UNL1        0.0739
     18 C         142.8496  142.1391  160.8135 C.3     1  UNL1        0.0392
     19 C         141.5196  142.4755  160.2067 C.3     1  UNL1        0.0998
     20 O         141.8270  145.3736  159.4953 O.2     1  UNL1       -0.2705
     21 C         140.7927  144.9528  160.4970 C.2     1  UNL1        0.2739
     22 C         139.9122  145.9811  161.1429 C.3     1  UNL1        0.2900
     23 O         138.8780  145.5604  162.1446 O.3     1  UNL1       -0.4643
     24 C         138.7243  144.1113  162.5003 C.ar    1  UNL1        0.1528
     25 C         137.6901  143.6905  163.5020 C.ar    1  UNL1        0.0382
     26 C         137.5364  142.2415  163.8577 C.ar    1  UNL1        0.0032
     27 C         138.4169  141.2132  163.2117 C.ar    1  UNL1        0.0015
     28 C         139.4511  141.6339  162.2101 C.ar    1  UNL1        0.0180
     29 C         139.6048  143.0830  161.8544 C.ar    1  UNL1        0.0881
     30 N         140.6390  143.5038  160.8527 N.am    1  UNL1       -0.2529
@<TRIPOS>BOND
     1    20    21    2
     2    21    22    1
     3    22    23    1
     4    23    24    1
     5    24    25   ar
     6    25    26   ar
     7    26    27   ar
     8    27    28   ar
     9    28    29   ar
    10    29    30    1
    11    30    19    1
    12    19    18    1
    13    18    17    1
    14    17     1    1
    15     1     2    1
    16     2     3    1
    17     3     4    1
    18     4     7    1
    19     7     8   am
    20     8     9    2
    21     8    10    1
    22    10    11    2
    23    11    12    1
    24    12    13    1
    25    13    14    2
    26    14    15    1
    27    15    16    2
    28     4     5    1
    29     5     6    1
    30    30    21   am
    31     6     1    1
    32    29    24   ar
    33    16     7    1
    34    16    11    1
@<TRIPOS>MOLECULE
*****
 30 34 0 0 0
SMALL
GASTEIGER

@<TRIPOS>ATOM
      1 N         138.5524  139.4841  164.1476 N.3     1  UNL1       -0.2725
      2 C         139.1862  140.8207  164.3961 C.3     1  UNL1        0.0738
      3 C         139.6405  141.1902  165.7771 C.3     1  UNL1        0.0376
      4 C         139.4611  140.2231  166.9096 C.3     1  UNL1        0.0841
      5 C         138.8273  138.8864  166.6610 C.3     1  UNL1        0.0376
      6 C         138.3730  138.5170  165.2801 C.3     1  UNL1        0.0738
      7 N         139.9154  140.5925  168.2905 N.am    1  UNL1       -0.2422
      8 C         139.1683  140.3296  169.5643 C.2     1  UNL1        0.3310
      9 O         137.8356  139.6510  169.6808 O.2     1  UNL1       -0.2501
     10 N         139.9877  140.8643  170.7012 N.am    1  UNL1       -0.1630
     11 C         141.2414  141.4578  170.1300 C.2     1  UNL1        0.0908
     12 C         142.4178  142.1295  170.7741 C.3     1  UNL1        0.1696
     13 N         143.5496  142.6332  169.9283 N.2     1  UNL1       -0.2626
     14 C         143.5049  142.4652  168.4383 C.2     1  UNL1        0.0949
     15 C         142.3284  141.7935  167.7943 C.2     1  UNL1        0.0362
     16 C         141.1967  141.2898  168.6401 C.2     1  UNL1        0.0700
     17 C         138.0981  139.1147  162.7667 C.3     1  UNL1        0.0739
     18 C         139.0485  138.4460  161.8182 C.3     1  UNL1        0.0392
     19 C         140.2366  137.6997  162.3488 C.3     1  UNL1        0.0998
     20 O         141.2843  138.3022  159.6030 O.2     1  UNL1       -0.2705
     21 C         142.1389  138.5678  160.8069 C.2     1  UNL1        0.2739
     22 C         143.5174  139.1346  160.6378 C.3     1  UNL1        0.2900
     23 O         144.3720  139.4001  161.8416 O.3     1  UNL1       -0.4643
     24 C         143.8481  139.0989  163.2145 C.ar    1  UNL1        0.1528
     25 C         144.7027  139.3644  164.4183 C.ar    1  UNL1        0.0382
     26 C         144.1789  139.0631  165.7911 C.ar    1  UNL1        0.0032
     27 C         142.8004  138.4963  165.9602 C.ar    1  UNL1        0.0015
     28 C         141.9458  138.2308  164.7565 C.ar    1  UNL1        0.0180
     29 C         142.4697  138.5320  163.3836 C.ar    1  UNL1        0.0881
     30 N         141.6151  138.2665  162.1797 N.am    1  UNL1       -0.2529
@<TRIPOS>BOND
     1    20    21    2
     2    21    22    1
     3    22    23    1
     4    23    24    1
     5    24    25   ar
     6    25    26   ar
     7    26    27   ar
     8    27    28   ar
     9    28    29   ar
    10    29    30    1
    11    30    19    1
    12    19    18    1
    13    18    17    1
    14    17     1    1
    15     1     2    1
    16     2     3    1
    17     3     4    1
    18     4     7    1
    19     7     8   am
    20     8     9    2
    21     8    10    1
    22    10    11    2
    23    11    12    1
    24    12    13    1
    25    13    14    2
    26    14    15    1
    27    15    16    2
    28     4     5    1
    29     5     6    1
    30    30    21   am
    31     6     1    1
    32    29    24   ar
    33    16     7    1
    34    16    11    1
@<TRIPOS>MOLECULE
*****
 30 34 0 0 0
SMALL
GASTEIGER

@<TRIPOS>ATOM
      1 N         140.7435  142.5851  163.3124 N.3     1  UNL1       -0.2725
      2 C         140.1297  143.4444  164.3777 C.3     1  UNL1        0.0738
      3 C         140.4742  143.2126  165.8192 C.3     1  UNL1        0.0376
      4 C         141.4325  142.1215  166.1952 C.3     1  UNL1        0.0841
      5 C         142.0462  141.2623  165.1298 C.3     1  UNL1        0.0376
      6 C         141.7017  141.4941  163.6884 C.3     1  UNL1        0.0738
      7 N         141.7770  141.8897  167.6365 N.am    1  UNL1       -0.2422
      8 C         143.0507  142.2981  168.3153 C.2     1  UNL1        0.3310
      9 O         144.2036  143.0100  167.6719 O.2     1  UNL1       -0.2501
     10 N         142.9692  141.8696  169.7504 N.am    1  UNL1       -0.1630
     11 C         141.6450  141.1964  169.9587 C.2     1  UNL1        0.0908
     12 C         141.0151  140.5737  171.1692 C.3     1  UNL1        0.1696
     13 N         139.6482  139.9633  171.0733 N.2     1  UNL1       -0.2626
     14 C         138.9114  139.9757  169.7667 C.2     1  UNL1        0.0949
     15 C         139.5414  140.5985  168.5562 C.2     1  UNL1        0.0362
     16 C         140.9082  141.2088  168.6522 C.2     1  UNL1        0.0700
     17 C         140.3990  142.8170  161.8711 C.3     1  UNL1        0.0739
     18 C         138.9669  142.9941  161.4613 C.3     1  UNL1        0.0392
     19 C         137.9950  141.8632  161.6238 C.3     1  UNL1        0.0998
     20 O         138.8731  140.5113  159.0937 O.2     1  UNL1       -0.2705
     21 C         138.9297  139.7720  160.3978 C.2     1  UNL1        0.2739
     22 C         139.4254  138.3568  160.4367 C.3     1  UNL1        0.2900
     23 O         139.4820  137.6176  161.7406 O.3     1  UNL1       -0.4643
     24 C         139.0430  138.2935  163.0057 C.ar    1  UNL1        0.1528
     25 C         139.0996  137.5543  164.3096 C.ar    1  UNL1        0.0382
     26 C         138.6606  138.2302  165.5746 C.ar    1  UNL1        0.0032
     27 C         138.1649  139.6454  165.5357 C.ar    1  UNL1        0.0015
     28 C         138.1082  140.3847  164.2318 C.ar    1  UNL1        0.0180
     29 C         138.5473  139.7087  162.9668 C.ar    1  UNL1        0.0881
     30 N         138.4906  140.4480  161.6628 N.am    1  UNL1       -0.2529
@<TRIPOS>BOND
     1    20    21    2
     2    21    22    1
     3    22    23    1
     4    23    24    1
     5    24    25   ar
     6    25    26   ar
     7    26    27   ar
     8    27    28   ar
     9    28    29   ar
    10    29    30    1
    11    30    19    1
    12    19    18    1
    13    18    17    1
    14    17     1    1
    15     1     2    1
    16     2     3    1
    17     3     4    1
    18     4     7    1
    19     7     8   am
    20     8     9    2
    21     8    10    1
    22    10    11    2
    23    11    12    1
    24    12    13    1
    25    13    14    2
    26    14    15    1
    27    15    16    2
    28     4     5    1
    29     5     6    1
    30    30    21   am
    31     6     1    1
    32    29    24   ar
    33    16     7    1
    34    16    11    1
@<TRIPOS>MOLECULE
*****
 30 34 0 0 0
SMALL
GASTEIGER

@<TRIPOS>ATOM
      1 N         140.1990  141.7293  163.4982 N.3     1  UNL1       -0.2725
      2 C         140.0138  140.3275  163.9988 C.3     1  UNL1        0.0738
      3 C         140.4860  139.9531  165.3725 C.3     1  UNL1        0.0376
      4 C         141.1434  140.9805  166.2455 C.3     1  UNL1        0.0841
      5 C         141.3285  142.3824  165.7449 C.3     1  UNL1        0.0376
      6 C         140.8564  142.7567  164.3712 C.3     1  UNL1        0.0738
      7 N         141.6156  140.6062  167.6191 N.am    1  UNL1       -0.2422
      8 C         142.6131  139.5351  167.9471 C.2     1  UNL1        0.3310
      9 O         143.3137  138.6503  166.9590 O.2     1  UNL1       -0.2501
     10 N         142.7872  139.5042  169.4366 N.am    1  UNL1       -0.1630
     11 C         141.8972  140.5562  170.0293 C.2     1  UNL1        0.0908
     12 C         141.6526  140.9818  171.4466 C.3     1  UNL1        0.1696
     13 N         140.6839  142.0887  171.7408 N.2     1  UNL1       -0.2626
     14 C         139.9597  142.7698  170.6174 C.2     1  UNL1        0.0949
     15 C         140.2043  142.3441  169.2001 C.2     1  UNL1        0.0362
     16 C         141.1731  141.2373  168.9060 C.2     1  UNL1        0.0700
     17 C         139.7268  142.1036  162.1246 C.3     1  UNL1        0.0739
     18 C         140.2847  141.4011  160.9224 C.3     1  UNL1        0.0392
     19 C         141.6760  141.7078  160.4530 C.3     1  UNL1        0.0998
     20 O         142.1799  144.6607  160.6150 O.2     1  UNL1       -0.2705
     21 C         142.9439  143.7199  161.4988 C.2     1  UNL1        0.2739
     22 C         143.9599  144.2555  162.4636 C.3     1  UNL1        0.2900
     23 O         144.7240  143.3148  163.3474 O.3     1  UNL1       -0.4643
     24 C         144.4720  141.8383  163.2665 C.ar    1  UNL1        0.1528
     25 C         145.2361  140.8975  164.1503 C.ar    1  UNL1        0.0382
     26 C         144.9841  139.4211  164.0693 C.ar    1  UNL1        0.0032
     27 C         143.9681  138.8854  163.1045 C.ar    1  UNL1        0.0015
     28 C         143.2041  139.8261  162.2207 C.ar    1  UNL1        0.0180
     29 C         143.4561  141.3026  162.3017 C.ar    1  UNL1        0.0881
     30 N         142.6920  142.2434  161.4178 N.am    1  UNL1       -0.2529
@<TRIPOS>BOND
     1    20    21    2
     2    21    22    1
     3    22    23    1
     4    23    24    1
     5    24    25   ar
     6    25    26   ar
     7    26    27   ar
     8    27    28   ar
     9    28    29   ar
    10    29    30    1
    11    30    19    1
    12    19    18    1
    13    18    17    1
    14    17     1    1
    15     1     2    1
    16     2     3    1
    17     3     4    1
    18     4     7    1
    19     7     8   am
    20     8     9    2
    21     8    10    1
    22    10    11    2
    23    11    12    1
    24    12    13    1
    25    13    14    2
    26    14    15    1
    27    15    16    2
    28     4     5    1
    29     5     6    1
    30    30    21   am
    31     6     1    1
    32    29    24   ar
    33    16     7    1
    34    16    11    1
@<TRIPOS>MOLECULE
*****
 30 34 0 0 0
SMALL
GASTEIGER

@<TRIPOS>ATOM
      1 N         141.9156  142.6449  163.3898 N.3     1  UNL1       -0.2725
      2 C         142.6822  141.5427  164.0587 C.3     1  UNL1        0.0738
      3 C         142.2534  141.0413  165.4059 C.3     1  UNL1        0.0376
      4 C         141.0580  141.6423  166.0841 C.3     1  UNL1        0.0841
      5 C         140.2915  142.7445  165.4151 C.3     1  UNL1        0.0376
      6 C         140.7203  143.2458  164.0680 C.3     1  UNL1        0.0738
      7 N         140.6292  141.1410  167.4312 N.am    1  UNL1       -0.2422
      8 C         139.5907  140.0904  167.6914 C.2     1  UNL1        0.3310
      9 O         138.7987  139.3566  166.6501 O.2     1  UNL1       -0.2501
     10 N         139.4833  139.9023  169.1757 N.am    1  UNL1       -0.1630
     11 C         140.4554  140.8367  169.8329 C.2     1  UNL1        0.0908
     12 C         140.7871  141.0893  171.2737 C.3     1  UNL1        0.1696
     13 N         141.8272  142.1076  171.6365 N.2     1  UNL1       -0.2626
     14 C         142.5355  142.8731  170.5583 C.2     1  UNL1        0.0949
     15 C         142.2037  142.6204  169.1175 C.2     1  UNL1        0.0362
     16 C         141.1636  141.6022  168.7547 C.2     1  UNL1        0.0700
     17 C         142.3445  143.1462  162.0427 C.3     1  UNL1        0.0739
     18 C         141.3770  143.1377  160.8964 C.3     1  UNL1        0.0392
     19 C         140.7369  141.8515  160.4648 C.3     1  UNL1        0.0998
     20 O         138.0579  143.0693  161.0482 O.2     1  UNL1       -0.2705
     21 C         138.4368  141.7575  161.6693 C.2     1  UNL1        0.2739
     22 C         137.4762  141.0546  162.5820 C.3     1  UNL1        0.2900
     23 O         137.8550  139.7428  163.2031 O.3     1  UNL1       -0.4643
     24 C         139.1945  139.1339  162.9114 C.ar    1  UNL1        0.1528
     25 C         139.5733  137.8222  163.5325 C.ar    1  UNL1        0.0382
     26 C         140.9127  137.2133  163.2408 C.ar    1  UNL1        0.0032
     27 C         141.8734  137.9162  162.3280 C.ar    1  UNL1        0.0015
     28 C         141.4946  139.2279  161.7070 C.ar    1  UNL1        0.0180
     29 C         140.1551  139.8368  161.9987 C.ar    1  UNL1        0.0881
     30 N         139.7762  141.1486  161.3776 N.am    1  UNL1       -0.2529
@<TRIPOS>BOND
     1    20    21    2
     2    21    22    1
     3    22    23    1
     4    23    24    1
     5    24    25   ar
     6    25    26   ar
     7    26    27   ar
     8    27    28   ar
     9    28    29   ar
    10    29    30    1
    11    30    19    1
    12    19    18    1
    13    18    17    1
    14    17     1    1
    15     1     2    1
    16     2     3    1
    17     3     4    1
    18     4     7    1
    19     7     8   am
    20     8     9    2
    21     8    10    1
    22    10    11    2
    23    11    12    1
    24    12    13    1
    25    13    14    2
    26    14    15    1
    27    15    16    2
    28     4     5    1
    29     5     6    1
    30    30    21   am
    31     6     1    1
    32    29    24   ar
    33    16     7    1
    34    16    11    1
@<TRIPOS>MOLECULE
*****
 30 34 0 0 0
SMALL
GASTEIGER

@<TRIPOS>ATOM
      1 N         139.8728  140.8283  163.5668 N.3     1  UNL1       -0.2725
      2 C         140.3858  142.0228  164.3150 C.3     1  UNL1        0.0738
      3 C         140.9581  141.8565  165.6916 C.3     1  UNL1        0.0376
      4 C         141.0174  140.4957  166.3199 C.3     1  UNL1        0.0841
      5 C         140.5043  139.3012  165.5715 C.3     1  UNL1        0.0376
      6 C         139.9321  139.4674  164.1950 C.3     1  UNL1        0.0738
      7 N         141.5896  140.3294  167.6964 N.am    1  UNL1       -0.2422
      8 C         142.7192  139.4190  168.0775 C.2     1  UNL1        0.3310
      9 O         143.4748  138.5151  167.1491 O.2     1  UNL1       -0.2501
     10 N         142.9605  139.5712  169.5501 N.am    1  UNL1       -0.1630
     11 C         141.9801  140.5757  170.0791 C.2     1  UNL1        0.0908
     12 C         141.7494  141.1242  171.4560 C.3     1  UNL1        0.1696
     13 N         140.6714  142.1413  171.6873 N.2     1  UNL1       -0.2626
     14 C         139.8241  142.6099  170.5415 C.2     1  UNL1        0.0949
     15 C         140.0548  142.0614  169.1646 C.2     1  UNL1        0.0362
     16 C         141.1328  141.0443  168.9334 C.2     1  UNL1        0.0700
     17 C         139.3005  140.9945  162.1903 C.3     1  UNL1        0.0739
     18 C         140.0030  141.8587  161.1854 C.3     1  UNL1        0.0392
     19 C         141.2813  141.3896  160.5560 C.3     1  UNL1        0.0998
     20 O         140.8703  138.4376  160.2148 O.2     1  UNL1       -0.2705
     21 C         141.9588  138.9443  161.1139 C.2     1  UNL1        0.2739
     22 C         142.8419  137.9750  161.8424 C.3     1  UNL1        0.2900
     23 O         143.9304  138.4817  162.7415 O.3     1  UNL1       -0.4643
     24 C         144.1359  139.9578  162.9121 C.ar    1  UNL1        0.1528
     25 C         145.2244  140.4645  163.8112 C.ar    1  UNL1        0.0382
     26 C         145.4299  141.9405  163.9818 C.ar    1  UNL1        0.0032
     27 C         144.5468  142.9098  163.2533 C.ar    1  UNL1        0.0015
     28 C         143.4583  142.4031  162.3542 C.ar    1  UNL1        0.0180
     29 C         143.2529  140.9271  162.1836 C.ar    1  UNL1        0.0881
     30 N         142.1643  140.4203  161.2845 N.am    1  UNL1       -0.2529
@<TRIPOS>BOND
     1    20    21    2
     2    21    22    1
     3    22    23    1
     4    23    24    1
     5    24    25   ar
     6    25    26   ar
     7    26    27   ar
     8    27    28   ar
     9    28    29   ar
    10    29    30    1
    11    30    19    1
    12    19    18    1
    13    18    17    1
    14    17     1    1
    15     1     2    1
    16     2     3    1
    17     3     4    1
    18     4     7    1
    19     7     8   am
    20     8     9    2
    21     8    10    1
    22    10    11    2
    23    11    12    1
    24    12    13    1
    25    13    14    2
    26    14    15    1
    27    15    16    2
    28     4     5    1
    29     5     6    1
    30    30    21   am
    31     6     1    1
    32    29    24   ar
    33    16     7    1
    34    16    11    1
