@<TRIPOS>MOLECULE
*****
 23 26 0 0 0
SMALL
GASTEIGER

@<TRIPOS>ATOM
      1 C         140.5151  141.3180  170.0330 C.3     1  UNL1        0.1150
      2 N         140.4734  140.8870  168.5969 N.am    1  UNL1       -0.2735
      3 C         141.5272  141.3614  167.6406 C.3     1  UNL1        0.1206
      4 C         141.4856  140.9304  166.2044 C.3     1  UNL1        0.1140
      5 C         141.4439  140.4994  164.7683 C.3     1  UNL1        0.0463
      6 C         142.4976  140.9737  163.8120 C.3     1  UNL1        0.0746
      7 N         143.5932  141.8791  164.2918 N.3     1  UNL1       -0.2722
      8 C         143.6349  142.3101  165.7280 C.3     1  UNL1        0.0746
      9 C         142.5810  141.8357  166.6843 C.3     1  UNL1        0.0463
     10 O         140.3900  140.0250  165.7246 O.3     1  UNL1       -0.3529
     11 C         139.3362  139.5507  166.6809 C.3     1  UNL1        0.1608
     12 C         138.6797  138.7791  165.5748 C.3     1  UNL1        0.0390
     13 C         138.0954  138.7541  166.9560 C.3     1  UNL1        0.0390
     14 C         139.3779  139.9817  168.1170 C.2     1  UNL1        0.2501
     15 O         138.3242  139.5074  169.0733 O.2     1  UNL1       -0.2724
     16 C         144.6469  142.3534  163.3356 C.3     1  UNL1        0.0768
     17 C         144.4705  143.6542  162.6099 C.3     1  UNL1        0.0437
     18 C         143.1064  144.2661  162.4882 C.ar    1  UNL1       -0.0208
     19 C         142.2783  144.0151  161.2629 C.ar    1  UNL1       -0.0042
     20 C         140.9142  144.6270  161.1412 C.ar    1  UNL1       -0.0003
     21 C         140.3781  145.4899  162.2448 C.ar    1  UNL1       -0.0000
     22 C         141.2062  145.7409  163.4701 C.ar    1  UNL1       -0.0003
     23 C         142.5702  145.1291  163.5918 C.ar    1  UNL1       -0.0042
@<TRIPOS>BOND
     1     1     2    1
     2     2     3    1
     3     3     4    1
     4     4     5    1
     5     5     6    1
     6     6     7    1
     7     7    16    1
     8    16    17    1
     9    17    18    1
    10    18    19   ar
    11    19    20   ar
    12    20    21   ar
    13    21    22   ar
    14    22    23   ar
    15     7     8    1
    16     8     9    1
    17     4    10    1
    18    10    11    1
    19    11    12    1
    20    12    13    1
    21    11    14    1
    22    14    15    2
    23    14     2   am
    24     9     4    1
    25    13    11    1
    26    23    18   ar
@<TRIPOS>MOLECULE
*****
 23 26 0 0 0
SMALL
GASTEIGER

@<TRIPOS>ATOM
      1 C         137.7233  142.2269  162.2296 C.3     1  UNL1        0.1150
      2 N         139.0055  142.6069  162.9088 N.am    1  UNL1       -0.2735
      3 C         139.6571  141.6550  163.8677 C.3     1  UNL1        0.1206
      4 C         140.9394  142.0351  164.5469 C.3     1  UNL1        0.1140
      5 C         142.2216  142.4152  165.2262 C.3     1  UNL1        0.0463
      6 C         142.8732  141.4633  166.1850 C.3     1  UNL1        0.0746
      7 N         142.2425  140.1313  166.4647 N.3     1  UNL1       -0.2722
      8 C         140.9602  139.7513  165.7854 C.3     1  UNL1        0.0746
      9 C         140.3087  140.7032  164.8265 C.3     1  UNL1        0.0463
     10 O         141.5700  143.3671  164.2673 O.3     1  UNL1       -0.3529
     11 C         140.9185  144.3189  163.3084 C.3     1  UNL1        0.1608
     12 C         142.0229  145.3073  163.5391 C.3     1  UNL1        0.0390
     13 C         140.9064  145.6374  162.5934 C.3     1  UNL1        0.0390
     14 C         139.6362  143.9388  162.6292 C.2     1  UNL1        0.2501
     15 O         138.9846  144.8907  161.6703 O.2     1  UNL1       -0.2724
     16 C         142.8941  139.1795  167.4235 C.3     1  UNL1        0.0768
     17 C         142.5631  139.2434  168.8851 C.3     1  UNL1        0.0437
     18 C         141.6715  140.3317  169.4053 C.ar    1  UNL1       -0.0208
     19 C         142.2598  141.6447  169.8294 C.ar    1  UNL1       -0.0042
     20 C         141.3681  142.7330  170.3497 C.ar    1  UNL1       -0.0003
     21 C         139.8882  142.5083  170.4458 C.ar    1  UNL1       -0.0000
     22 C         139.2999  141.1952  170.0217 C.ar    1  UNL1       -0.0003
     23 C         140.1915  140.1070  169.5015 C.ar    1  UNL1       -0.0042
@<TRIPOS>BOND
     1     1     2    1
     2     2     3    1
     3     3     4    1
     4     4     5    1
     5     5     6    1
     6     6     7    1
     7     7    16    1
     8    16    17    1
     9    17    18    1
    10    18    19   ar
    11    19    20   ar
    12    20    21   ar
    13    21    22   ar
    14    22    23   ar
    15     7     8    1
    16     8     9    1
    17     4    10    1
    18    10    11    1
    19    11    12    1
    20    12    13    1
    21    11    14    1
    22    14    15    2
    23    14     2   am
    24     9     4    1
    25    13    11    1
    26    23    18   ar
@<TRIPOS>MOLECULE
*****
 23 26 0 0 0
SMALL
GASTEIGER

@<TRIPOS>ATOM
      1 C         141.7405  145.2828  162.6973 C.3     1  UNL1        0.1150
      2 N         141.0309  144.0286  163.1137 N.am    1  UNL1       -0.2735
      3 C         141.6571  143.1124  164.1230 C.3     1  UNL1        0.1206
      4 C         140.9475  141.8581  164.5393 C.3     1  UNL1        0.1140
      5 C         140.2380  140.6039  164.9557 C.3     1  UNL1        0.0463
      6 C         140.8640  139.6878  165.9649 C.3     1  UNL1        0.0746
      7 N         142.1998  140.0259  166.5579 N.3     1  UNL1       -0.2722
      8 C         142.9094  141.2801  166.1416 C.3     1  UNL1        0.0746
      9 C         142.2832  142.1963  165.1322 C.3     1  UNL1        0.0463
     10 O         139.6118  141.5200  163.9463 O.3     1  UNL1       -0.3529
     11 C         138.9857  142.4362  162.9371 C.3     1  UNL1        0.1608
     12 C         137.8049  141.5168  162.8351 C.3     1  UNL1        0.0390
     13 C         137.8530  142.7699  162.0120 C.3     1  UNL1        0.0390
     14 C         139.6953  143.6904  162.5207 C.2     1  UNL1        0.2501
     15 O         139.0692  144.6066  161.5115 O.2     1  UNL1       -0.2724
     16 C         142.8259  139.1097  167.5672 C.3     1  UNL1        0.0768
     17 C         142.5362  139.2925  169.0275 C.3     1  UNL1        0.0437
     18 C         141.6573  140.4198  169.4824 C.ar    1  UNL1       -0.0208
     19 C         140.1825  140.2014  169.6472 C.ar    1  UNL1       -0.0042
     20 C         139.3036  141.3287  170.1022 C.ar    1  UNL1       -0.0003
     21 C         139.8996  142.6743  170.3922 C.ar    1  UNL1       -0.0000
     22 C         141.3745  142.8926  170.2274 C.ar    1  UNL1       -0.0003
     23 C         142.2533  141.7654  169.7725 C.ar    1  UNL1       -0.0042
@<TRIPOS>BOND
     1     1     2    1
     2     2     3    1
     3     3     4    1
     4     4     5    1
     5     5     6    1
     6     6     7    1
     7     7    16    1
     8    16    17    1
     9    17    18    1
    10    18    19   ar
    11    19    20   ar
    12    20    21   ar
    13    21    22   ar
    14    22    23   ar
    15     7     8    1
    16     8     9    1
    17     4    10    1
    18    10    11    1
    19    11    12    1
    20    12    13    1
    21    11    14    1
    22    14    15    2
    23    14     2   am
    24     9     4    1
    25    13    11    1
    26    23    18   ar
@<TRIPOS>MOLECULE
*****
 23 26 0 0 0
SMALL
GASTEIGER

@<TRIPOS>ATOM
      1 C         143.4723  142.7609  160.4692 C.3     1  UNL1        0.1150
      2 N         142.3242  143.0756  161.3817 N.am    1  UNL1       -0.2735
      3 C         141.9954  142.1541  162.5188 C.3     1  UNL1        0.1206
      4 C         140.8473  142.4689  163.4313 C.3     1  UNL1        0.1140
      5 C         139.6992  142.7837  164.3439 C.3     1  UNL1        0.0463
      6 C         139.3705  141.8623  165.4809 C.3     1  UNL1        0.0746
      7 N         140.1898  140.6260  165.7054 N.3     1  UNL1       -0.2722
      8 C         141.3379  140.3112  164.7929 C.3     1  UNL1        0.0746
      9 C         141.6667  141.2327  163.6558 C.3     1  UNL1        0.0463
     10 O         140.0280  143.7052  163.2068 O.3     1  UNL1       -0.3529
     11 C         140.3567  144.6266  162.0698 C.3     1  UNL1        0.1608
     12 C         139.2209  145.5221  162.4671 C.3     1  UNL1        0.0390
     13 C         140.0735  145.8724  161.2838 C.3     1  UNL1        0.0390
     14 C         141.5048  144.3119  161.1573 C.2     1  UNL1        0.2501
     15 O         141.8336  145.2333  160.0202 O.2     1  UNL1       -0.2724
     16 C         139.8611  139.7046  166.8424 C.3     1  UNL1        0.0768
     17 C         139.6592  140.2579  168.2219 C.3     1  UNL1        0.0437
     18 C         140.7092  141.1326  168.8402 C.ar    1  UNL1       -0.0208
     19 C         142.1229  140.6434  168.9510 C.ar    1  UNL1       -0.0042
     20 C         143.1730  141.5182  169.5693 C.ar    1  UNL1       -0.0003
     21 C         142.8093  142.8820  170.0768 C.ar    1  UNL1       -0.0000
     22 C         141.3957  143.3712  169.9661 C.ar    1  UNL1       -0.0003
     23 C         140.3456  142.4965  169.3478 C.ar    1  UNL1       -0.0042
@<TRIPOS>BOND
     1     1     2    1
     2     2     3    1
     3     3     4    1
     4     4     5    1
     5     5     6    1
     6     6     7    1
     7     7    16    1
     8    16    17    1
     9    17    18    1
    10    18    19   ar
    11    19    20   ar
    12    20    21   ar
    13    21    22   ar
    14    22    23   ar
    15     7     8    1
    16     8     9    1
    17     4    10    1
    18    10    11    1
    19    11    12    1
    20    12    13    1
    21    11    14    1
    22    14    15    2
    23    14     2   am
    24     9     4    1
    25    13    11    1
    26    23    18   ar
@<TRIPOS>MOLECULE
*****
 23 26 0 0 0
SMALL
GASTEIGER

@<TRIPOS>ATOM
      1 C         138.2614  138.5131  166.2244 C.3     1  UNL1        0.1150
      2 N         139.2858  139.4926  166.7154 N.am    1  UNL1       -0.2735
      3 C         140.3651  139.9751  165.7922 C.3     1  UNL1        0.1206
      4 C         141.3895  140.9547  166.2832 C.3     1  UNL1        0.1140
      5 C         142.4139  141.9343  166.7741 C.3     1  UNL1        0.0463
      6 C         143.4932  142.4168  165.8510 C.3     1  UNL1        0.0746
      7 N         143.5482  141.9197  164.4368 N.3     1  UNL1       -0.2722
      8 C         142.5238  140.9401  163.9458 C.3     1  UNL1        0.0746
      9 C         141.4444  140.4576  164.8690 C.3     1  UNL1        0.0463
     10 O         141.3345  141.4518  167.6974 O.3     1  UNL1       -0.3529
     11 C         140.2552  140.9693  168.6205 C.3     1  UNL1        0.1608
     12 C         140.8149  141.8218  169.7205 C.3     1  UNL1        0.0390
     13 C         139.6003  140.9777  169.9700 C.3     1  UNL1        0.0390
     14 C         139.2308  139.9897  168.1295 C.2     1  UNL1        0.2501
     15 O         138.1515  139.5072  169.0527 O.2     1  UNL1       -0.2724
     16 C         144.6275  142.4021  163.5136 C.3     1  UNL1        0.0768
     17 C         144.4748  143.7138  162.8020 C.3     1  UNL1        0.0437
     18 C         143.1072  144.2766  162.5519 C.ar    1  UNL1       -0.0208
     19 C         142.4465  145.1323  163.5918 C.ar    1  UNL1       -0.0042
     20 C         141.0788  145.6951  163.3415 C.ar    1  UNL1       -0.0003
     21 C         140.3717  145.4023  162.0515 C.ar    1  UNL1       -0.0000
     22 C         141.0324  144.5466  161.0116 C.ar    1  UNL1       -0.0003
     23 C         142.4001  143.9838  161.2617 C.ar    1  UNL1       -0.0042
@<TRIPOS>BOND
     1     1     2    1
     2     2     3    1
     3     3     4    1
     4     4     5    1
     5     5     6    1
     6     6     7    1
     7     7    16    1
     8    16    17    1
     9    17    18    1
    10    18    19   ar
    11    19    20   ar
    12    20    21   ar
    13    21    22   ar
    14    22    23   ar
    15     7     8    1
    16     8     9    1
    17     4    10    1
    18    10    11    1
    19    11    12    1
    20    12    13    1
    21    11    14    1
    22    14    15    2
    23    14     2   am
    24     9     4    1
    25    13    11    1
    26    23    18   ar
@<TRIPOS>MOLECULE
*****
 23 26 0 0 0
SMALL
GASTEIGER

@<TRIPOS>ATOM
      1 C         140.3601  144.2886  169.9702 C.3     1  UNL1        0.1150
      2 N         140.7682  142.9573  169.4125 N.am    1  UNL1       -0.2735
      3 C         140.5832  142.6672  167.9524 C.3     1  UNL1        0.1206
      4 C         140.9913  141.3358  167.3947 C.3     1  UNL1        0.1140
      5 C         141.3994  140.0045  166.8370 C.3     1  UNL1        0.0463
      6 C         141.2145  139.7144  165.3770 C.3     1  UNL1        0.0746
      7 N         140.6215  140.7556  164.4747 N.3     1  UNL1       -0.2722
      8 C         140.2134  142.0870  165.0323 C.3     1  UNL1        0.0746
      9 C         140.3983  142.3770  166.4924 C.3     1  UNL1        0.0463
     10 O         141.5843  140.2946  168.2971 O.3     1  UNL1       -0.3529
     11 C         141.7692  140.5847  169.7571 C.3     1  UNL1        0.1608
     12 C         142.3472  139.2149  169.9561 C.3     1  UNL1        0.0390
     13 C         142.2184  140.1510  171.1210 C.3     1  UNL1        0.0390
     14 C         141.3612  141.9160  170.3148 C.2     1  UNL1        0.2501
     15 O         141.5461  142.2062  171.7747 O.2     1  UNL1       -0.2724
     16 C         140.4366  140.4655  163.0147 C.3     1  UNL1        0.0768
     17 C         141.6303  140.3751  162.1109 C.3     1  UNL1        0.0437
     18 C         142.9590  140.8993  162.5687 C.ar    1  UNL1       -0.0208
     19 C         143.2897  142.3529  162.4021 C.ar    1  UNL1       -0.0042
     20 C         144.6185  142.8771  162.8600 C.ar    1  UNL1       -0.0003
     21 C         145.6166  141.9477  163.4844 C.ar    1  UNL1       -0.0000
     22 C         145.2859  140.4941  163.6511 C.ar    1  UNL1       -0.0003
     23 C         143.9572  139.9699  163.1932 C.ar    1  UNL1       -0.0042
@<TRIPOS>BOND
     1     1     2    1
     2     2     3    1
     3     3     4    1
     4     4     5    1
     5     5     6    1
     6     6     7    1
     7     7    16    1
     8    16    17    1
     9    17    18    1
    10    18    19   ar
    11    19    20   ar
    12    20    21   ar
    13    21    22   ar
    14    22    23   ar
    15     7     8    1
    16     8     9    1
    17     4    10    1
    18    10    11    1
    19    11    12    1
    20    12    13    1
    21    11    14    1
    22    14    15    2
    23    14     2   am
    24     9     4    1
    25    13    11    1
    26    23    18   ar
@<TRIPOS>MOLECULE
*****
 23 26 0 0 0
SMALL
GASTEIGER

@<TRIPOS>ATOM
      1 C         142.9936  143.1610  170.6563 C.3     1  UNL1        0.1150
      2 N         142.2321  142.3511  169.6491 N.am    1  UNL1       -0.2735
      3 C         142.7214  142.2620  168.2339 C.3     1  UNL1        0.1206
      4 C         141.9599  141.4521  167.2268 C.3     1  UNL1        0.1140
      5 C         141.1985  140.6423  166.2196 C.3     1  UNL1        0.0463
      6 C         141.6877  140.5531  164.8045 C.3     1  UNL1        0.0746
      7 N         142.9383  141.2738  164.3964 N.3     1  UNL1       -0.2722
      8 C         143.6997  142.0837  165.4035 C.3     1  UNL1        0.0746
      9 C         143.2105  142.1728  166.8187 C.3     1  UNL1        0.0463
     10 O         140.7093  140.7314  167.6349 O.3     1  UNL1       -0.3529
     11 C         140.2201  140.8205  169.0500 C.3     1  UNL1        0.1608
     12 C         139.0585  139.9368  168.7042 C.3     1  UNL1        0.0390
     13 C         139.2156  140.4559  170.1027 C.3     1  UNL1        0.0390
     14 C         140.9815  141.6304  170.0571 C.2     1  UNL1        0.2501
     15 O         140.4924  141.7195  171.4723 O.2     1  UNL1       -0.2724
     16 C         143.4275  141.1847  162.9812 C.3     1  UNL1        0.0768
     17 C         143.1053  142.2779  162.0060 C.3     1  UNL1        0.0437
     18 C         141.9956  143.2431  162.3010 C.ar    1  UNL1       -0.0208
     19 C         140.5775  142.8777  161.9763 C.ar    1  UNL1       -0.0042
     20 C         139.4679  143.8430  162.2714 C.ar    1  UNL1       -0.0003
     21 C         139.7764  145.1736  162.8911 C.ar    1  UNL1       -0.0000
     22 C         141.1945  145.5391  163.2158 C.ar    1  UNL1       -0.0003
     23 C         142.3041  144.5739  162.9208 C.ar    1  UNL1       -0.0042
@<TRIPOS>BOND
     1     1     2    1
     2     2     3    1
     3     3     4    1
     4     4     5    1
     5     5     6    1
     6     6     7    1
     7     7    16    1
     8    16    17    1
     9    17    18    1
    10    18    19   ar
    11    19    20   ar
    12    20    21   ar
    13    21    22   ar
    14    22    23   ar
    15     7     8    1
    16     8     9    1
    17     4    10    1
    18    10    11    1
    19    11    12    1
    20    12    13    1
    21    11    14    1
    22    14    15    2
    23    14     2   am
    24     9     4    1
    25    13    11    1
    26    23    18   ar
@<TRIPOS>MOLECULE
*****
 23 26 0 0 0
SMALL
GASTEIGER

@<TRIPOS>ATOM
      1 C         140.3968  141.1710  170.4976 C.3     1  UNL1        0.1150
      2 N         140.3480  140.8968  169.0237 N.am    1  UNL1       -0.2735
      3 C         141.3951  141.4746  168.1182 C.3     1  UNL1        0.1206
      4 C         141.3462  141.2004  166.6443 C.3     1  UNL1        0.1140
      5 C         141.2974  140.9262  165.1704 C.3     1  UNL1        0.0463
      6 C         142.3444  141.5039  164.2649 C.3     1  UNL1        0.0746
      7 N         143.4403  142.3560  164.8334 N.3     1  UNL1       -0.2722
      8 C         143.4891  142.6302  166.3073 C.3     1  UNL1        0.0746
      9 C         142.4421  142.0524  167.2127 C.3     1  UNL1        0.0463
     10 O         140.2503  140.3483  166.0759 O.3     1  UNL1       -0.3529
     11 C         139.2033  139.7706  166.9814 C.3     1  UNL1        0.1608
     12 C         138.5424  139.1203  165.8022 C.3     1  UNL1        0.0390
     13 C         137.9661  138.9451  167.1759 C.3     1  UNL1        0.0390
     14 C         139.2521  140.0448  168.4553 C.2     1  UNL1        0.2501
     15 O         138.2051  139.4670  169.3607 O.2     1  UNL1       -0.2724
     16 C         144.4873  142.9337  163.9279 C.3     1  UNL1        0.0768
     17 C         145.3176  142.0280  163.0675 C.3     1  UNL1        0.0437
     18 C         144.7488  141.4729  161.7954 C.ar    1  UNL1       -0.0208
     19 C         144.3419  140.0310  161.7222 C.ar    1  UNL1       -0.0042
     20 C         143.7731  139.4759  160.4500 C.ar    1  UNL1       -0.0003
     21 C         143.6112  140.3627  159.2511 C.ar    1  UNL1       -0.0000
     22 C         144.0181  141.8046  159.3244 C.ar    1  UNL1       -0.0003
     23 C         144.5869  142.3597  160.5965 C.ar    1  UNL1       -0.0042
@<TRIPOS>BOND
     1     1     2    1
     2     2     3    1
     3     3     4    1
     4     4     5    1
     5     5     6    1
     6     6     7    1
     7     7    16    1
     8    16    17    1
     9    17    18    1
    10    18    19   ar
    11    19    20   ar
    12    20    21   ar
    13    21    22   ar
    14    22    23   ar
    15     7     8    1
    16     8     9    1
    17     4    10    1
    18    10    11    1
    19    11    12    1
    20    12    13    1
    21    11    14    1
    22    14    15    2
    23    14     2   am
    24     9     4    1
    25    13    11    1
    26    23    18   ar
@<TRIPOS>MOLECULE
*****
 23 26 0 0 0
SMALL
GASTEIGER

@<TRIPOS>ATOM
      1 C         142.6532  138.5342  170.3542 C.3     1  UNL1        0.1150
      2 N         142.2390  139.6786  169.4774 N.am    1  UNL1       -0.2735
      3 C         142.5537  139.6520  168.0110 C.3     1  UNL1        0.1206
      4 C         142.1395  140.7964  167.1341 C.3     1  UNL1        0.1140
      5 C         141.7253  141.9408  166.2573 C.3     1  UNL1        0.0463
      6 C         142.0400  141.9142  164.7910 C.3     1  UNL1        0.0746
      7 N         142.7689  140.7432  164.2014 N.3     1  UNL1       -0.2722
      8 C         143.1831  139.5988  165.0782 C.3     1  UNL1        0.0746
      9 C         142.8684  139.6254  166.5446 C.3     1  UNL1        0.0463
     10 O         141.4106  141.9674  167.7237 O.3     1  UNL1       -0.3529
     11 C         141.0959  141.9939  169.1901 C.3     1  UNL1        0.1608
     12 C         140.4360  143.3307  169.0242 C.3     1  UNL1        0.0390
     13 C         140.4934  142.6854  170.3771 C.3     1  UNL1        0.0390
     14 C         141.5101  140.8496  170.0669 C.2     1  UNL1        0.2501
     15 O         141.1954  140.8761  171.5333 O.2     1  UNL1       -0.2724
     16 C         143.0836  140.7166  162.7350 C.3     1  UNL1        0.0768
     17 C         142.4617  139.6747  161.8532 C.3     1  UNL1        0.0437
     18 C         141.0188  139.3055  162.0312 C.ar    1  UNL1       -0.0208
     19 C         140.6520  138.0169  162.7058 C.ar    1  UNL1       -0.0042
     20 C         139.2091  137.6478  162.8838 C.ar    1  UNL1       -0.0003
     21 C         138.1330  138.5672  162.3872 C.ar    1  UNL1       -0.0000
     22 C         138.4997  139.8557  161.7126 C.ar    1  UNL1       -0.0003
     23 C         139.9426  140.2249  161.5346 C.ar    1  UNL1       -0.0042
@<TRIPOS>BOND
     1     1     2    1
     2     2     3    1
     3     3     4    1
     4     4     5    1
     5     5     6    1
     6     6     7    1
     7     7    16    1
     8    16    17    1
     9    17    18    1
    10    18    19   ar
    11    19    20   ar
    12    20    21   ar
    13    21    22   ar
    14    22    23   ar
    15     7     8    1
    16     8     9    1
    17     4    10    1
    18    10    11    1
    19    11    12    1
    20    12    13    1
    21    11    14    1
    22    14    15    2
    23    14     2   am
    24     9     4    1
    25    13    11    1
    26    23    18   ar
