@<TRIPOS>MOLECULE
*****
 31 34 0 0 0
SMALL
GASTEIGER

@<TRIPOS>ATOM
      1 C         143.1405  139.5892  159.4906 C.2     1  UNL1        0.2260
      2 O         144.3379  139.8011  158.6123 O.2     1  UNL1       -0.2748
      3 N         142.1480  138.5144  159.1592 N.am    1  UNL1       -0.2839
      4 H         141.3621  138.3753  159.7357 H       1  UNL1        0.1549
      5 C         142.3530  137.6515  157.9495 C.ar    1  UNL1        0.0504
      6 C         142.1939  138.2346  156.5766 C.ar    1  UNL1        0.0155
      7 C         142.3988  137.3716  155.3669 C.ar    1  UNL1        0.0127
      8 C         142.7629  135.9256  155.5302 C.ar    1  UNL1        0.0592
      9 CL        142.9678  135.0627  154.3205 Cl      1  UNL1       -0.0822
     10 C         142.9219  135.3426  156.9030 C.ar    1  UNL1        0.0295
     11 C         142.7170  136.2055  158.1127 C.ar    1  UNL1        0.0170
     12 C         143.2860  133.8966  157.0661 C.ar    1  UNL1        0.0822
     13 C         144.5491  133.5172  157.7807 C.ar    1  UNL1        0.0192
     14 C         144.9131  132.0712  157.9439 C.ar    1  UNL1        0.0031
     15 C         144.0140  131.0046  157.3924 C.ar    1  UNL1        0.0207
     16 C         142.7509  131.3841  156.6778 C.ar    1  UNL1        0.0988
     17 N         142.3869  132.8300  156.5147 N.ar    1  UNL1       -0.2438
     18 C         142.9356  140.4522  160.7003 C.3     1  UNL1        0.0823
     19 C         142.5244  141.8856  160.5381 C.3     1  UNL1        0.0100
     20 C         138.2827  138.0410  162.0370 C.3     1  UNL1        0.0521
     21 C         139.6005  138.2159  162.7318 C.ar    1  UNL1        0.0589
     22 C         139.8067  137.6455  164.1036 C.ar    1  UNL1        0.0144
     23 C         141.1246  137.8204  164.7983 C.ar    1  UNL1       -0.0019
     24 C         142.2363  138.5658  164.1212 C.ar    1  UNL1       -0.0089
     25 C         142.0301  139.1363  162.7494 C.ar    1  UNL1        0.0547
     26 N         140.7122  138.9613  162.0546 N.ar    1  UNL1       -0.2543
     27 C         143.1417  139.8817  162.0722 C.3     1  UNL1        0.0485
     28 C         144.4596  140.0567  162.7669 C.3     1  UNL1        0.0067
     29 C         144.6658  139.4862  164.1388 C.3     1  UNL1        0.0048
     30 C         143.5541  138.7408  164.8159 C.3     1  UNL1        0.0235
     31 C         143.7603  138.1704  166.1878 C.3     1  UNL1        0.0047
@<TRIPOS>BOND
     1    20    21    1
     2    21    22   ar
     3    22    23   ar
     4    23    24   ar
     5    24    25   ar
     6    25    26   ar
     7    25    27    1
     8    27    18    1
     9    18    19    1
    10    18     1    1
    11     1     2    2
    12     1     3   am
    13     3     5    1
    14     5     6   ar
    15     6     7   ar
    16     7     8   ar
    17     8     9    1
    18     8    10   ar
    19    10    12    1
    20    12    13   ar
    21    13    14   ar
    22    14    15   ar
    23    15    16   ar
    24    16    17   ar
    25    10    11   ar
    26    27    28    1
    27    28    29    1
    28    29    30    1
    29    30    31    1
    30    26    21   ar
    31    11     5   ar
    32    30    24    1
    33    17    12   ar
    34     3     4    1
@<TRIPOS>MOLECULE
*****
 31 34 0 0 0
SMALL
GASTEIGER

@<TRIPOS>ATOM
      1 C         139.4880  139.7971  162.9396 C.2     1  UNL1        0.2260
      2 O         138.4932  140.8772  163.2456 O.2     1  UNL1       -0.2748
      3 N         140.0860  138.9906  164.0541 N.am    1  UNL1       -0.2839
      4 H         140.7389  138.2816  163.8532 H       1  UNL1        0.1549
      5 C         139.6893  139.2643  165.4745 C.ar    1  UNL1        0.0504
      6 C         138.4290  138.6693  166.0292 C.ar    1  UNL1        0.0155
      7 C         138.0322  138.9431  167.4496 C.ar    1  UNL1        0.0127
      8 C         138.8959  139.8118  168.3154 C.ar    1  UNL1        0.0592
      9 CL        138.4991  140.0856  169.7359 Cl      1  UNL1       -0.0822
     10 C         140.1561  140.4068  167.7607 C.ar    1  UNL1        0.0295
     11 C         140.5528  140.1330  166.3403 C.ar    1  UNL1        0.0170
     12 C         141.0197  141.2755  168.6265 C.ar    1  UNL1        0.0822
     13 C         140.5319  142.6275  169.0558 C.ar    1  UNL1        0.0192
     14 C         141.3956  143.4962  169.9216 C.ar    1  UNL1        0.0031
     15 C         142.7468  143.0129  170.3581 C.ar    1  UNL1        0.0207
     16 C         143.2345  141.6610  169.9288 C.ar    1  UNL1        0.0988
     17 N         142.3710  140.7923  169.0630 N.ar    1  UNL1       -0.2438
     18 C         139.8847  139.5233  161.5192 C.3     1  UNL1        0.0823
     19 C         139.4657  138.2444  160.8566 C.3     1  UNL1        0.0100
     20 C         144.6795  139.7496  164.0109 C.3     1  UNL1        0.0521
     21 C         144.0925  140.4469  162.8195 C.ar    1  UNL1        0.0589
     22 C         144.9082  141.4520  162.0616 C.ar    1  UNL1        0.0144
     23 C         144.3212  142.1492  160.8702 C.ar    1  UNL1       -0.0019
     24 C         142.9187  141.8414  160.4368 C.ar    1  UNL1       -0.0089
     25 C         142.1030  140.8363  161.1947 C.ar    1  UNL1        0.0547
     26 N         142.6900  140.1390  162.3861 N.ar    1  UNL1       -0.2543
     27 C         140.7003  140.5284  160.7612 C.3     1  UNL1        0.0485
     28 C         140.1134  141.2256  159.5699 C.3     1  UNL1        0.0067
     29 C         140.9291  142.2308  158.8120 C.3     1  UNL1        0.0048
     30 C         142.3317  142.5386  159.2454 C.3     1  UNL1        0.0235
     31 C         143.1473  143.5437  158.4875 C.3     1  UNL1        0.0047
@<TRIPOS>BOND
     1    20    21    1
     2    21    22   ar
     3    22    23   ar
     4    23    24   ar
     5    24    25   ar
     6    25    26   ar
     7    25    27    1
     8    27    18    1
     9    18    19    1
    10    18     1    1
    11     1     2    2
    12     1     3   am
    13     3     5    1
    14     5     6   ar
    15     6     7   ar
    16     7     8   ar
    17     8     9    1
    18     8    10   ar
    19    10    12    1
    20    12    13   ar
    21    13    14   ar
    22    14    15   ar
    23    15    16   ar
    24    16    17   ar
    25    10    11   ar
    26    27    28    1
    27    28    29    1
    28    29    30    1
    29    30    31    1
    30    26    21   ar
    31    11     5   ar
    32    30    24    1
    33    17    12   ar
    34     3     4    1
@<TRIPOS>MOLECULE
*****
 31 34 0 0 0
SMALL
GASTEIGER

@<TRIPOS>ATOM
      1 C         139.2666  140.2585  162.2923 C.2     1  UNL1        0.2260
      2 O         138.4142  139.4670  163.2394 O.2     1  UNL1       -0.2748
      3 N         140.6640  140.6407  162.6815 N.am    1  UNL1       -0.2839
      4 H         141.2235  141.1602  162.0600 H       1  UNL1        0.1549
      5 C         141.2088  140.2314  164.0178 C.ar    1  UNL1        0.0504
      6 C         142.2553  139.1602  164.1049 C.ar    1  UNL1        0.0155
      7 C         142.8002  138.7509  165.4411 C.ar    1  UNL1        0.0127
      8 C         142.2985  139.4127  166.6903 C.ar    1  UNL1        0.0592
      9 CL        142.8434  139.0034  168.0266 Cl      1  UNL1       -0.0822
     10 C         141.2521  140.4838  166.6032 C.ar    1  UNL1        0.0295
     11 C         140.7073  140.8932  165.2669 C.ar    1  UNL1        0.0170
     12 C         140.7505  141.1456  167.8523 C.ar    1  UNL1        0.0822
     13 C         141.1907  142.5389  168.1915 C.ar    1  UNL1        0.0192
     14 C         140.6890  143.2007  169.4407 C.ar    1  UNL1        0.0031
     15 C         139.7473  142.4692  170.3507 C.ar    1  UNL1        0.0207
     16 C         139.3072  141.0759  170.0115 C.ar    1  UNL1        0.0988
     17 N         139.8088  140.4141  168.7624 N.ar    1  UNL1       -0.2438
     18 C         138.7218  140.6678  160.9561 C.3     1  UNL1        0.0823
     19 C         137.5934  139.8965  160.3380 C.3     1  UNL1        0.0100
     20 C         138.7591  144.7283  164.5284 C.3     1  UNL1        0.0521
     21 C         139.1874  144.5986  163.0966 C.ar    1  UNL1        0.0589
     22 C         139.7709  145.7791  162.3785 C.ar    1  UNL1        0.0144
     23 C         140.1991  145.6495  160.9468 C.ar    1  UNL1       -0.0019
     24 C         140.0439  144.3392  160.2332 C.ar    1  UNL1       -0.0089
     25 C         139.4605  143.1587  160.9514 C.ar    1  UNL1        0.0547
     26 N         139.0322  143.2884  162.3831 N.ar    1  UNL1       -0.2543
     27 C         139.3052  141.8484  160.2379 C.3     1  UNL1        0.0485
     28 C         139.7335  141.7187  158.8062 C.3     1  UNL1        0.0067
     29 C         140.3170  142.8993  158.0880 C.3     1  UNL1        0.0048
     30 C         140.4722  144.2096  158.8015 C.3     1  UNL1        0.0235
     31 C         141.0556  145.3901  158.0834 C.3     1  UNL1        0.0047
@<TRIPOS>BOND
     1    20    21    1
     2    21    22   ar
     3    22    23   ar
     4    23    24   ar
     5    24    25   ar
     6    25    26   ar
     7    25    27    1
     8    27    18    1
     9    18    19    1
    10    18     1    1
    11     1     2    2
    12     1     3   am
    13     3     5    1
    14     5     6   ar
    15     6     7   ar
    16     7     8   ar
    17     8     9    1
    18     8    10   ar
    19    10    12    1
    20    12    13   ar
    21    13    14   ar
    22    14    15   ar
    23    15    16   ar
    24    16    17   ar
    25    10    11   ar
    26    27    28    1
    27    28    29    1
    28    29    30    1
    29    30    31    1
    30    26    21   ar
    31    11     5   ar
    32    30    24    1
    33    17    12   ar
    34     3     4    1
@<TRIPOS>MOLECULE
*****
 31 34 0 0 0
SMALL
GASTEIGER

@<TRIPOS>ATOM
      1 C         143.3236  140.9069  164.0960 C.2     1  UNL1        0.2260
      2 O         143.9369  142.2718  164.2008 O.2     1  UNL1       -0.2748
      3 N         142.6915  140.4655  162.8093 N.am    1  UNL1       -0.2839
      4 H         142.2890  139.5697  162.7405 H       1  UNL1        0.1549
      5 C         142.6728  141.3889  161.6274 C.ar    1  UNL1        0.0504
      6 C         141.7200  142.5470  161.5955 C.ar    1  UNL1        0.0155
      7 C         141.7013  143.4705  160.4136 C.ar    1  UNL1        0.0127
      8 C         142.6354  143.2357  159.2635 C.ar    1  UNL1        0.0592
      9 CL        142.6166  144.1592  158.0816 Cl      1  UNL1       -0.0822
     10 C         143.5881  142.0776  159.2955 C.ar    1  UNL1        0.0295
     11 C         143.6068  141.1542  160.4774 C.ar    1  UNL1        0.0170
     12 C         144.5221  141.8429  158.1455 C.ar    1  UNL1        0.0822
     13 C         144.2087  140.7859  157.1284 C.ar    1  UNL1        0.0192
     14 C         145.1427  140.5512  155.9783 C.ar    1  UNL1        0.0031
     15 C         146.3901  141.3736  155.8454 C.ar    1  UNL1        0.0207
     16 C         146.7035  142.4306  156.8625 C.ar    1  UNL1        0.0988
     17 N         145.7695  142.6653  158.0125 N.ar    1  UNL1       -0.2438
     18 C         143.3423  139.9835  165.2780 C.3     1  UNL1        0.0823
     19 C         144.3743  138.8983  165.3656 C.3     1  UNL1        0.0100
     20 C         138.7889  137.7049  163.4548 C.3     1  UNL1        0.0521
     21 C         139.1674  138.3958  164.7313 C.ar    1  UNL1        0.0589
     22 C         138.1542  138.5575  165.8255 C.ar    1  UNL1        0.0144
     23 C         138.5328  139.2485  167.1020 C.ar    1  UNL1       -0.0019
     24 C         139.9244  139.7777  167.2842 C.ar    1  UNL1       -0.0089
     25 C         140.9375  139.6160  166.1900 C.ar    1  UNL1        0.0547
     26 N         140.5590  138.9251  164.9135 N.ar    1  UNL1       -0.2543
     27 C         142.3292  140.1452  166.3722 C.3     1  UNL1        0.0485
     28 C         142.7077  140.8361  167.6487 C.3     1  UNL1        0.0067
     29 C         141.6945  140.9978  168.7429 C.3     1  UNL1        0.0048
     30 C         140.3029  140.4686  168.5607 C.3     1  UNL1        0.0235
     31 C         139.2898  140.6303  169.6549 C.3     1  UNL1        0.0047
@<TRIPOS>BOND
     1    20    21    1
     2    21    22   ar
     3    22    23   ar
     4    23    24   ar
     5    24    25   ar
     6    25    26   ar
     7    25    27    1
     8    27    18    1
     9    18    19    1
    10    18     1    1
    11     1     2    2
    12     1     3   am
    13     3     5    1
    14     5     6   ar
    15     6     7   ar
    16     7     8   ar
    17     8     9    1
    18     8    10   ar
    19    10    12    1
    20    12    13   ar
    21    13    14   ar
    22    14    15   ar
    23    15    16   ar
    24    16    17   ar
    25    10    11   ar
    26    27    28    1
    27    28    29    1
    28    29    30    1
    29    30    31    1
    30    26    21   ar
    31    11     5   ar
    32    30    24    1
    33    17    12   ar
    34     3     4    1
@<TRIPOS>MOLECULE
*****
 31 34 0 0 0
SMALL
GASTEIGER

@<TRIPOS>ATOM
      1 C         141.3954  138.7295  162.5692 C.2     1  UNL1        0.2260
      2 O         140.1982  139.1842  161.7882 O.2     1  UNL1       -0.2748
      3 N         142.7325  138.6224  161.8978 N.am    1  UNL1       -0.2839
      4 H         143.5182  138.3240  162.4105 H       1  UNL1        0.1549
      5 C         142.8724  138.9702  160.4454 C.ar    1  UNL1        0.0504
      6 C         143.1770  140.3813  160.0380 C.ar    1  UNL1        0.0155
      7 C         143.3170  140.7291  158.5856 C.ar    1  UNL1        0.0127
      8 C         143.1523  139.6656  157.5406 C.ar    1  UNL1        0.0592
      9 CL        143.2922  140.0133  156.0882 Cl      1  UNL1       -0.0822
     10 C         142.8477  138.2545  157.9480 C.ar    1  UNL1        0.0295
     11 C         142.7078  137.9068  159.4004 C.ar    1  UNL1        0.0170
     12 C         142.6831  137.1912  156.9030 C.ar    1  UNL1        0.0822
     13 C         141.3098  136.7778  156.4634 C.ar    1  UNL1        0.0192
     14 C         141.1452  135.7144  155.4183 C.ar    1  UNL1        0.0031
     15 C         142.3538  135.0644  154.8129 C.ar    1  UNL1        0.0207
     16 C         143.7271  135.4777  155.2525 C.ar    1  UNL1        0.0988
     17 N         143.8917  136.5410  156.2975 N.ar    1  UNL1       -0.2438
     18 C         141.2554  138.3817  164.0216 C.3     1  UNL1        0.0823
     19 C         141.2717  136.9454  164.4539 C.3     1  UNL1        0.0100
     20 C         145.6151  141.5429  163.5214 C.3     1  UNL1        0.0521
     21 C         144.4080  141.5690  164.4115 C.ar    1  UNL1        0.0589
     22 C         144.2519  142.6576  165.4317 C.ar    1  UNL1        0.0144
     23 C         143.0448  142.6837  166.3218 C.ar    1  UNL1       -0.0019
     24 C         141.9940  141.6212  166.1919 C.ar    1  UNL1       -0.0089
     25 C         142.1501  140.5327  165.1717 C.ar    1  UNL1        0.0547
     26 N         143.3572  140.5066  164.2816 N.ar    1  UNL1       -0.2543
     27 C         141.0993  139.4702  165.0417 C.3     1  UNL1        0.0485
     28 C         139.8922  139.4963  165.9319 C.3     1  UNL1        0.0067
     29 C         139.7361  140.5849  166.9521 C.3     1  UNL1        0.0048
     30 C         140.7869  141.6473  167.0820 C.3     1  UNL1        0.0235
     31 C         140.6308  142.7359  168.1022 C.3     1  UNL1        0.0047
@<TRIPOS>BOND
     1    20    21    1
     2    21    22   ar
     3    22    23   ar
     4    23    24   ar
     5    24    25   ar
     6    25    26   ar
     7    25    27    1
     8    27    18    1
     9    18    19    1
    10    18     1    1
    11     1     2    2
    12     1     3   am
    13     3     5    1
    14     5     6   ar
    15     6     7   ar
    16     7     8   ar
    17     8     9    1
    18     8    10   ar
    19    10    12    1
    20    12    13   ar
    21    13    14   ar
    22    14    15   ar
    23    15    16   ar
    24    16    17   ar
    25    10    11   ar
    26    27    28    1
    27    28    29    1
    28    29    30    1
    29    30    31    1
    30    26    21   ar
    31    11     5   ar
    32    30    24    1
    33    17    12   ar
    34     3     4    1
@<TRIPOS>MOLECULE
*****
 31 34 0 0 0
SMALL
GASTEIGER

@<TRIPOS>ATOM
      1 C         143.2347  139.4198  162.7576 C.2     1  UNL1        0.2260
      2 O         143.4773  137.9761  162.4307 O.2     1  UNL1       -0.2748
      3 N         142.3280  140.2429  161.8912 N.am    1  UNL1       -0.2839
      4 H         142.1688  141.1905  162.1058 H       1  UNL1        0.1549
      5 C         141.6640  139.6223  160.6980 C.ar    1  UNL1        0.0504
      6 C         140.1703  139.6613  160.5661 C.ar    1  UNL1        0.0155
      7 C         139.5063  139.0406  159.3728 C.ar    1  UNL1        0.0127
      8 C         140.3360  138.3810  158.3114 C.ar    1  UNL1        0.0592
      9 CL        139.6720  137.7604  157.1181 Cl      1  UNL1       -0.0822
     10 C         141.8297  138.3421  158.4433 C.ar    1  UNL1        0.0295
     11 C         142.4937  138.9627  159.6366 C.ar    1  UNL1        0.0170
     12 C         142.6593  137.6825  157.3819 C.ar    1  UNL1        0.0822
     13 C         143.3295  138.5144  156.3289 C.ar    1  UNL1        0.0192
     14 C         144.1592  137.8547  155.2675 C.ar    1  UNL1        0.0031
     15 C         144.3187  136.3633  155.2591 C.ar    1  UNL1        0.0207
     16 C         143.6484  135.5314  156.3121 C.ar    1  UNL1        0.0988
     17 N         142.8188  136.1910  157.3735 N.ar    1  UNL1       -0.2438
     18 C         143.8987  140.0404  163.9509 C.3     1  UNL1        0.0823
     19 C         145.2463  140.6839  163.8091 C.3     1  UNL1        0.0100
     20 C         140.5380  144.2777  163.9879 C.3     1  UNL1        0.0521
     21 C         140.8655  143.2013  164.9799 C.ar    1  UNL1        0.0589
     22 C         140.1820  143.1785  166.3149 C.ar    1  UNL1        0.0144
     23 C         140.5095  142.1020  167.3069 C.ar    1  UNL1       -0.0019
     24 C         141.5206  141.0484  166.9639 C.ar    1  UNL1       -0.0089
     25 C         142.2041  141.0713  165.6289 C.ar    1  UNL1        0.0547
     26 N         141.8766  142.1477  164.6369 N.ar    1  UNL1       -0.2543
     27 C         143.2152  140.0176  165.2859 C.3     1  UNL1        0.0485
     28 C         143.5427  138.9412  166.2779 C.3     1  UNL1        0.0067
     29 C         142.8591  138.9184  167.6129 C.3     1  UNL1        0.0048
     30 C         141.8481  139.9720  167.9559 C.3     1  UNL1        0.0235
     31 C         141.1646  139.9492  169.2909 C.3     1  UNL1        0.0047
@<TRIPOS>BOND
     1    20    21    1
     2    21    22   ar
     3    22    23   ar
     4    23    24   ar
     5    24    25   ar
     6    25    26   ar
     7    25    27    1
     8    27    18    1
     9    18    19    1
    10    18     1    1
    11     1     2    2
    12     1     3   am
    13     3     5    1
    14     5     6   ar
    15     6     7   ar
    16     7     8   ar
    17     8     9    1
    18     8    10   ar
    19    10    12    1
    20    12    13   ar
    21    13    14   ar
    22    14    15   ar
    23    15    16   ar
    24    16    17   ar
    25    10    11   ar
    26    27    28    1
    27    28    29    1
    28    29    30    1
    29    30    31    1
    30    26    21   ar
    31    11     5   ar
    32    30    24    1
    33    17    12   ar
    34     3     4    1
@<TRIPOS>MOLECULE
*****
 31 34 0 0 0
SMALL
GASTEIGER

@<TRIPOS>ATOM
      1 C         138.4249  142.0581  162.9395 C.2     1  UNL1        0.2260
      2 O         137.0532  141.6362  162.5031 O.2     1  UNL1       -0.2748
      3 N         139.5771  141.9680  161.9832 N.am    1  UNL1       -0.2839
      4 H         140.4773  142.2449  162.2697 H       1  UNL1        0.1549
      5 C         139.3575  141.4561  160.5905 C.ar    1  UNL1        0.0504
      6 C         139.5444  139.9986  160.2889 C.ar    1  UNL1        0.0155
      7 C         139.3248  139.4868  158.8962 C.ar    1  UNL1        0.0127
      8 C         138.9183  140.4324  157.8050 C.ar    1  UNL1        0.0592
      9 CL        138.6987  139.9205  156.4122 Cl      1  UNL1       -0.0822
     10 C         138.7314  141.8898  158.1065 C.ar    1  UNL1        0.0295
     11 C         138.9510  142.4017  159.4993 C.ar    1  UNL1        0.0170
     12 C         138.3249  142.8353  157.0154 C.ar    1  UNL1        0.0822
     13 C         139.2403  143.9529  156.6118 C.ar    1  UNL1        0.0192
     14 C         138.8337  144.8985  155.5205 C.ar    1  UNL1        0.0031
     15 C         137.5118  144.7263  154.8329 C.ar    1  UNL1        0.0207
     16 C         136.5964  143.6087  155.2365 C.ar    1  UNL1        0.0988
     17 N         137.0029  142.6632  156.3277 N.ar    1  UNL1       -0.2438
     18 C         138.6445  142.5700  164.3323 C.3     1  UNL1        0.0823
     19 C         137.8747  143.7598  164.8241 C.3     1  UNL1        0.0100
     20 C         143.3830  145.0339  163.4804 C.3     1  UNL1        0.0521
     21 C         142.9403  143.9095  164.3691 C.ar    1  UNL1        0.0589
     22 C         143.9296  143.2315  165.2700 C.ar    1  UNL1        0.0144
     23 C         143.4869  142.1071  166.1587 C.ar    1  UNL1       -0.0019
     24 C         142.0550  141.6606  166.1464 C.ar    1  UNL1       -0.0089
     25 C         141.0657  142.3385  165.2455 C.ar    1  UNL1        0.0547
     26 N         141.5084  143.4630  164.3568 N.ar    1  UNL1       -0.2543
     27 C         139.6337  141.8920  165.2332 C.3     1  UNL1        0.0485
     28 C         139.1911  140.7676  166.1219 C.3     1  UNL1        0.0067
     29 C         140.1805  140.0897  167.0229 C.3     1  UNL1        0.0048
     30 C         141.6124  140.5362  167.0351 C.3     1  UNL1        0.0235
     31 C         142.6016  139.8583  167.9360 C.3     1  UNL1        0.0047
@<TRIPOS>BOND
     1    20    21    1
     2    21    22   ar
     3    22    23   ar
     4    23    24   ar
     5    24    25   ar
     6    25    26   ar
     7    25    27    1
     8    27    18    1
     9    18    19    1
    10    18     1    1
    11     1     2    2
    12     1     3   am
    13     3     5    1
    14     5     6   ar
    15     6     7   ar
    16     7     8   ar
    17     8     9    1
    18     8    10   ar
    19    10    12    1
    20    12    13   ar
    21    13    14   ar
    22    14    15   ar
    23    15    16   ar
    24    16    17   ar
    25    10    11   ar
    26    27    28    1
    27    28    29    1
    28    29    30    1
    29    30    31    1
    30    26    21   ar
    31    11     5   ar
    32    30    24    1
    33    17    12   ar
    34     3     4    1
@<TRIPOS>MOLECULE
*****
 31 34 0 0 0
SMALL
GASTEIGER

@<TRIPOS>ATOM
      1 C         140.0573  139.0363  162.9921 C.2     1  UNL1        0.2260
      2 O         140.5700  137.8289  163.7196 O.2     1  UNL1       -0.2748
      3 N         139.4056  140.1511  163.7553 N.am    1  UNL1       -0.2839
      4 H         139.0691  140.9436  163.2778 H       1  UNL1        0.1549
      5 C         139.2665  140.0585  165.2460 C.ar    1  UNL1        0.0504
      6 C         138.1847  139.2109  165.8471 C.ar    1  UNL1        0.0155
      7 C         138.0457  139.1183  167.3378 C.ar    1  UNL1        0.0127
      8 C         138.9885  139.8732  168.2273 C.ar    1  UNL1        0.0592
      9 CL        138.8495  139.7806  169.7180 Cl      1  UNL1       -0.0822
     10 C         140.0703  140.7208  167.6262 C.ar    1  UNL1        0.0295
     11 C         140.2093  140.8134  166.1355 C.ar    1  UNL1        0.0170
     12 C         141.0130  141.4757  168.5157 C.ar    1  UNL1        0.0822
     13 C         142.3941  140.9466  168.7657 C.ar    1  UNL1        0.0192
     14 C         143.3369  141.7015  169.6553 C.ar    1  UNL1        0.0031
     15 C         142.8985  142.9856  170.2948 C.ar    1  UNL1        0.0207
     16 C         141.5174  143.5147  170.0448 C.ar    1  UNL1        0.0988
     17 N         140.5746  142.7598  169.1552 N.ar    1  UNL1       -0.2438
     18 C         140.1964  139.1289  161.5015 C.3     1  UNL1        0.0823
     19 C         139.2373  138.3950  160.6117 C.3     1  UNL1        0.0100
     20 C         138.8664  144.2892  162.4247 C.3     1  UNL1        0.0521
     21 C         140.0225  143.6190  161.7432 C.ar    1  UNL1        0.0589
     22 C         141.1205  144.4455  161.1423 C.ar    1  UNL1        0.0144
     23 C         142.2765  143.7753  160.4608 C.ar    1  UNL1       -0.0019
     24 C         142.3345  142.2786  160.3802 C.ar    1  UNL1       -0.0089
     25 C         141.2365  141.4522  160.9811 C.ar    1  UNL1        0.0547
     26 N         140.0804  142.1223  161.6626 N.ar    1  UNL1       -0.2543
     27 C         141.2944  139.9554  160.9005 C.3     1  UNL1        0.0485
     28 C         142.4504  139.2852  160.2190 C.3     1  UNL1        0.0067
     29 C         143.5485  140.1118  159.6180 C.3     1  UNL1        0.0048
     30 C         143.4905  141.6085  159.6986 C.3     1  UNL1        0.0235
     31 C         144.5886  142.4350  159.0977 C.3     1  UNL1        0.0047
@<TRIPOS>BOND
     1    20    21    1
     2    21    22   ar
     3    22    23   ar
     4    23    24   ar
     5    24    25   ar
     6    25    26   ar
     7    25    27    1
     8    27    18    1
     9    18    19    1
    10    18     1    1
    11     1     2    2
    12     1     3   am
    13     3     5    1
    14     5     6   ar
    15     6     7   ar
    16     7     8   ar
    17     8     9    1
    18     8    10   ar
    19    10    12    1
    20    12    13   ar
    21    13    14   ar
    22    14    15   ar
    23    15    16   ar
    24    16    17   ar
    25    10    11   ar
    26    27    28    1
    27    28    29    1
    28    29    30    1
    29    30    31    1
    30    26    21   ar
    31    11     5   ar
    32    30    24    1
    33    17    12   ar
    34     3     4    1
@<TRIPOS>MOLECULE
*****
 31 34 0 0 0
SMALL
GASTEIGER

@<TRIPOS>ATOM
      1 C         142.2485  140.0596  162.9115 C.2     1  UNL1        0.2260
      2 O         141.2616  139.6521  161.8580 O.2     1  UNL1       -0.2748
      3 N         143.1654  141.2222  162.6708 N.am    1  UNL1       -0.2839
      4 H         143.8131  141.4896  163.3622 H       1  UNL1        0.1549
      5 C         143.0951  141.9772  161.3766 C.ar    1  UNL1        0.0504
      6 C         142.0544  143.0402  161.1840 C.ar    1  UNL1        0.0155
      7 C         141.9842  143.7953  159.8898 C.ar    1  UNL1        0.0127
      8 C         142.9547  143.4874  158.7882 C.ar    1  UNL1        0.0592
      9 CL        142.8845  144.2425  157.4940 Cl      1  UNL1       -0.0822
     10 C         143.9953  142.4244  158.9808 C.ar    1  UNL1        0.0295
     11 C         144.0656  141.6694  160.2750 C.ar    1  UNL1        0.0170
     12 C         144.9658  142.1165  157.8793 C.ar    1  UNL1        0.0822
     13 C         144.6280  141.0784  156.8506 C.ar    1  UNL1        0.0192
     14 C         145.5985  140.7706  155.7490 C.ar    1  UNL1        0.0031
     15 C         146.9067  141.5008  155.6762 C.ar    1  UNL1        0.0207
     16 C         147.2445  142.5389  156.7049 C.ar    1  UNL1        0.0988
     17 N         146.2740  142.8468  157.8064 N.ar    1  UNL1       -0.2438
     18 C         142.3188  139.3045  164.2057 C.3     1  UNL1        0.0823
     19 C         143.6441  138.8371  164.7303 C.3     1  UNL1        0.0100
     20 C         142.5418  142.3855  168.6450 C.3     1  UNL1        0.0521
     21 C         141.5448  141.3995  168.1123 C.ar    1  UNL1        0.0589
     22 C         140.2898  141.1118  168.8818 C.ar    1  UNL1        0.0144
     23 C         139.2928  140.1258  168.3492 C.ar    1  UNL1       -0.0019
     24 C         139.5508  139.4275  167.0470 C.ar    1  UNL1       -0.0089
     25 C         140.8058  139.7152  166.2774 C.ar    1  UNL1        0.0547
     26 N         141.8028  140.7012  166.8101 N.ar    1  UNL1       -0.2543
     27 C         141.0638  139.0168  164.9752 C.3     1  UNL1        0.0485
     28 C         140.0667  138.0308  164.4425 C.3     1  UNL1        0.0067
     29 C         138.8117  137.7432  165.2121 C.3     1  UNL1        0.0048
     30 C         138.5537  138.4415  166.5143 C.3     1  UNL1        0.0235
     31 C         137.2988  138.1538  167.2838 C.3     1  UNL1        0.0047
@<TRIPOS>BOND
     1    20    21    1
     2    21    22   ar
     3    22    23   ar
     4    23    24   ar
     5    24    25   ar
     6    25    26   ar
     7    25    27    1
     8    27    18    1
     9    18    19    1
    10    18     1    1
    11     1     2    2
    12     1     3   am
    13     3     5    1
    14     5     6   ar
    15     6     7   ar
    16     7     8   ar
    17     8     9    1
    18     8    10   ar
    19    10    12    1
    20    12    13   ar
    21    13    14   ar
    22    14    15   ar
    23    15    16   ar
    24    16    17   ar
    25    10    11   ar
    26    27    28    1
    27    28    29    1
    28    29    30    1
    29    30    31    1
    30    26    21   ar
    31    11     5   ar
    32    30    24    1
    33    17    12   ar
    34     3     4    1
