@<TRIPOS>MOLECULE
*****
 24 26 0 0 0
SMALL
GASTEIGER

@<TRIPOS>ATOM
      1 S         138.3778  140.2493  164.5411 S.3     1  UNL1       -0.1088
      2 C         138.5931  141.5133  163.7626 C.ar    1  UNL1        0.0261
      3 C         137.5661  142.6057  163.8072 C.ar    1  UNL1        0.0077
      4 C         137.7814  143.8696  163.0287 C.ar    1  UNL1        0.0202
      5 C         139.0237  144.0413  162.2058 C.ar    1  UNL1        0.0893
      6 N         139.5066  145.1672  161.3402 N.ar    1  UNL1       -0.2245
      7 C         140.8321  144.7706  160.7607 C.ar    1  UNL1        0.1567
      8 N         141.6737  145.5995  159.8361 N.pl3   1  UNL1       -0.3375
      9 S         141.1683  143.3997  161.2681 S.2     1  UNL1       -0.0520
     10 C         140.0507  142.9489  162.1612 C.ar    1  UNL1        0.0502
     11 C         139.8354  141.6850  162.9396 C.ar    1  UNL1        0.0142
     12 H         141.3661  146.4924  159.5580 H       1  UNL1        0.1442
     13 H         142.5336  145.2506  159.5074 H       1  UNL1        0.1442
     14 C         139.4323  139.7651  165.4916 C.3     1  UNL1        0.0884
     15 C         139.9760  141.7927  169.4719 C.ar    1  UNL1        0.0756
     16 C         140.4889  142.4444  168.2220 C.ar    1  UNL1        0.0061
     17 C         140.3077  141.7685  166.8953 C.ar    1  UNL1       -0.0032
     18 C         139.6136  140.4410  166.8184 C.ar    1  UNL1       -0.0110
     19 C         139.1007  139.7894  168.0684 C.ar    1  UNL1       -0.0032
     20 C         139.2819  140.4653  169.3951 C.ar    1  UNL1        0.0061
     21 C         140.1573  142.4687  170.7987 C.2     1  UNL1        0.3413
     22 O         139.1248  143.4376  171.2941 O.2     1  UNL1       -0.2449
     23 C         142.2569  141.0167  171.2814 C.3     1  UNL1        0.2560
     24 O         141.3709  142.1757  171.6301 O.3     1  UNL1       -0.4413
@<TRIPOS>BOND
     1    23    24    1
     2    24    21    1
     3    21    22    2
     4    21    15    1
     5    15    16   ar
     6    16    17   ar
     7    17    18   ar
     8    18    14    1
     9    14     1    1
    10     1     2    1
    11     2     3   ar
    12     3     4   ar
    13     4     5   ar
    14     5     6   ar
    15     6     7   ar
    16     7     8    1
    17     7     9   ar
    18     9    10   ar
    19    10    11   ar
    20    18    19   ar
    21    19    20   ar
    22    20    15   ar
    23    11     2   ar
    24    10     5   ar
    25     8    12    1
    26     8    13    1
@<TRIPOS>MOLECULE
*****
 24 26 0 0 0
SMALL
GASTEIGER

@<TRIPOS>ATOM
      1 S         139.2028  138.6602  162.6623 S.3     1  UNL1       -0.1088
      2 C         138.9499  140.1353  162.7650 C.ar    1  UNL1        0.0261
      3 C         137.6012  140.6373  163.1878 C.ar    1  UNL1        0.0077
      4 C         137.3484  142.1123  163.2905 C.ar    1  UNL1        0.0202
      5 C         138.4444  143.0851  162.9704 C.ar    1  UNL1        0.0893
      6 N         138.4905  144.5845  162.9818 N.ar    1  UNL1       -0.2245
      7 C         139.8678  145.0089  162.5659 C.ar    1  UNL1        0.1567
      8 N         140.3546  146.4222  162.4404 N.pl3   1  UNL1       -0.3375
      9 S         140.6728  143.7720  162.2976 S.2     1  UNL1       -0.0520
     10 C         139.7931  142.5831  162.5476 C.ar    1  UNL1        0.0502
     11 C         140.0459  141.1081  162.4449 C.ar    1  UNL1        0.0142
     12 H         139.7477  147.1714  162.6396 H       1  UNL1        0.1442
     13 H         141.2810  146.6006  162.1589 H       1  UNL1        0.1442
     14 C         139.3086  137.8290  163.9063 C.3     1  UNL1        0.0884
     15 C         139.3592  139.8169  167.9431 C.ar    1  UNL1        0.0756
     16 C         140.5657  139.8917  167.0551 C.ar    1  UNL1        0.0061
     17 C         140.5489  139.2291  165.7095 C.ar    1  UNL1       -0.0032
     18 C         139.3255  138.4917  165.2520 C.ar    1  UNL1       -0.0110
     19 C         138.1189  138.4169  166.1400 C.ar    1  UNL1       -0.0032
     20 C         138.1358  139.0795  167.4856 C.ar    1  UNL1        0.0061
     21 C         139.3760  140.4796  169.2888 C.2     1  UNL1        0.3413
     22 O         138.4447  140.0110  170.3672 O.2     1  UNL1       -0.2449
     23 C         139.8919  142.7661  170.4093 C.3     1  UNL1        0.2560
     24 O         140.3242  141.6108  169.5559 O.3     1  UNL1       -0.4413
@<TRIPOS>BOND
     1    23    24    1
     2    24    21    1
     3    21    22    2
     4    21    15    1
     5    15    16   ar
     6    16    17   ar
     7    17    18   ar
     8    18    14    1
     9    14     1    1
    10     1     2    1
    11     2     3   ar
    12     3     4   ar
    13     4     5   ar
    14     5     6   ar
    15     6     7   ar
    16     7     8    1
    17     7     9   ar
    18     9    10   ar
    19    10    11   ar
    20    18    19   ar
    21    19    20   ar
    22    20    15   ar
    23    11     2   ar
    24    10     5   ar
    25     8    12    1
    26     8    13    1
@<TRIPOS>MOLECULE
*****
 24 26 0 0 0
SMALL
GASTEIGER

@<TRIPOS>ATOM
      1 S         143.6352  139.7081  164.5258 S.3     1  UNL1       -0.1088
      2 C         143.3383  141.1719  164.3872 C.ar    1  UNL1        0.0261
      3 C         144.1913  142.1807  165.0977 C.ar    1  UNL1        0.0077
      4 C         143.8944  143.6444  164.9591 C.ar    1  UNL1        0.0202
      5 C         142.7445  144.0994  164.1101 C.ar    1  UNL1        0.0893
      6 N         142.2137  145.4648  163.7874 N.ar    1  UNL1       -0.2245
      7 C         141.0327  145.2998  162.8775 C.ar    1  UNL1        0.1567
      8 N         140.1973  146.4076  162.3073 N.pl3   1  UNL1       -0.3375
      9 S         140.8336  143.8325  162.6379 S.2     1  UNL1       -0.0520
     10 C         141.8915  143.0906  163.3996 C.ar    1  UNL1        0.0502
     11 C         142.1884  141.6269  163.5382 C.ar    1  UNL1        0.0142
     12 H         140.4080  147.3445  162.5240 H       1  UNL1        0.1442
     13 H         139.4384  146.1977  161.7163 H       1  UNL1        0.1442
     14 C         142.6342  138.7978  165.1734 C.3     1  UNL1        0.0884
     15 C         140.4446  140.1296  168.8723 C.ar    1  UNL1        0.0756
     16 C         141.9057  139.7979  168.9442 C.ar    1  UNL1        0.0061
     17 C         142.6356  139.3539  167.7113 C.ar    1  UNL1       -0.0032
     18 C         141.9044  139.2418  166.4065 C.ar    1  UNL1       -0.0110
     19 C         140.4433  139.5735  166.3345 C.ar    1  UNL1       -0.0032
     20 C         139.7134  140.0175  167.5675 C.ar    1  UNL1        0.0061
     21 C         139.7148  140.5736  170.1053 C.2     1  UNL1        0.3413
     22 O         138.9314  139.5805  170.9116 O.2     1  UNL1       -0.2449
     23 C         140.3049  143.0517  169.5950 C.3     1  UNL1        0.2560
     24 O         139.7683  142.0106  170.5321 O.3     1  UNL1       -0.4413
@<TRIPOS>BOND
     1    23    24    1
     2    24    21    1
     3    21    22    2
     4    21    15    1
     5    15    16   ar
     6    16    17   ar
     7    17    18   ar
     8    18    14    1
     9    14     1    1
    10     1     2    1
    11     2     3   ar
    12     3     4   ar
    13     4     5   ar
    14     5     6   ar
    15     6     7   ar
    16     7     8    1
    17     7     9   ar
    18     9    10   ar
    19    10    11   ar
    20    18    19   ar
    21    19    20   ar
    22    20    15   ar
    23    11     2   ar
    24    10     5   ar
    25     8    12    1
    26     8    13    1
@<TRIPOS>MOLECULE
*****
 24 26 0 0 0
SMALL
GASTEIGER

@<TRIPOS>ATOM
      1 S         137.4091  141.1375  163.1463 S.3     1  UNL1       -0.1088
      2 C         138.1207  142.3648  162.6589 C.ar    1  UNL1        0.0261
      3 C         137.9313  143.6729  163.3680 C.ar    1  UNL1        0.0077
      4 C         138.6429  144.9001  162.8806 C.ar    1  UNL1        0.0202
      5 C         139.5439  144.8191  161.6841 C.ar    1  UNL1        0.0893
      6 N         140.3709  145.8529  160.9786 N.ar    1  UNL1       -0.2245
      7 C         141.0713  145.1836  159.8335 C.ar    1  UNL1        0.1567
      8 N         142.0024  145.8453  158.8612 N.pl3   1  UNL1       -0.3375
      9 S         140.6773  143.7362  159.8313 S.2     1  UNL1       -0.0520
     10 C         139.7333  143.5110  160.9750 C.ar    1  UNL1        0.0502
     11 C         139.0217  142.2838  161.4624 C.ar    1  UNL1        0.0142
     12 H         142.2003  146.8061  158.9452 H       1  UNL1        0.1442
     13 H         142.4156  145.3189  158.1391 H       1  UNL1        0.1442
     14 C         138.1888  140.0121  163.7590 C.3     1  UNL1        0.0884
     15 C         139.3946  140.2066  168.0901 C.ar    1  UNL1        0.0756
     16 C         140.0113  141.1464  167.0969 C.ar    1  UNL1        0.0061
     17 C         139.6094  141.0815  165.6532 C.ar    1  UNL1       -0.0032
     18 C         138.5907  140.0769  165.2027 C.ar    1  UNL1       -0.0110
     19 C         137.9739  139.1372  166.1959 C.ar    1  UNL1       -0.0032
     20 C         138.3759  139.2020  167.6396 C.ar    1  UNL1        0.0061
     21 C         139.7965  140.2715  169.5338 C.2     1  UNL1        0.3413
     22 O         139.1064  141.2263  170.4623 O.2     1  UNL1       -0.2449
     23 C         142.2607  139.9388  170.2868 C.3     1  UNL1        0.2560
     24 O         140.8885  139.3815  170.0490 O.3     1  UNL1       -0.4413
@<TRIPOS>BOND
     1    23    24    1
     2    24    21    1
     3    21    22    2
     4    21    15    1
     5    15    16   ar
     6    16    17   ar
     7    17    18   ar
     8    18    14    1
     9    14     1    1
    10     1     2    1
    11     2     3   ar
    12     3     4   ar
    13     4     5   ar
    14     5     6   ar
    15     6     7   ar
    16     7     8    1
    17     7     9   ar
    18     9    10   ar
    19    10    11   ar
    20    18    19   ar
    21    19    20   ar
    22    20    15   ar
    23    11     2   ar
    24    10     5   ar
    25     8    12    1
    26     8    13    1
@<TRIPOS>MOLECULE
*****
 24 26 0 0 0
SMALL
GASTEIGER

@<TRIPOS>ATOM
      1 S         138.1568  139.0045  166.0829 S.3     1  UNL1       -0.1088
      2 C         139.0561  139.9960  166.7600 C.ar    1  UNL1        0.0261
      3 C         139.6354  141.1384  165.9794 C.ar    1  UNL1        0.0077
      4 C         140.5346  142.1297  166.6565 C.ar    1  UNL1        0.0202
      5 C         140.8545  141.9787  168.1142 C.ar    1  UNL1        0.0893
      6 N         141.7031  142.7932  169.0452 N.ar    1  UNL1       -0.2245
      7 C         141.6481  142.1542  170.4012 C.ar    1  UNL1        0.1567
      8 N         142.3520  142.6394  171.6337 N.pl3   1  UNL1       -0.3375
      9 S         140.7657  140.9448  170.3082 S.2     1  UNL1       -0.0520
     10 C         140.2752  140.8363  168.8948 C.ar    1  UNL1        0.0502
     11 C         139.3760  139.8450  168.2177 C.ar    1  UNL1        0.0142
     12 H         142.9123  143.4480  171.5946 H       1  UNL1        0.1442
     13 H         142.2537  142.1493  172.4819 H       1  UNL1        0.1442
     14 C         138.7321  137.7517  165.4917 C.3     1  UNL1        0.0884
     15 C         141.9581  138.0144  162.3654 C.ar    1  UNL1        0.0756
     16 C         142.3237  137.9864  163.8199 C.ar    1  UNL1        0.0061
     17 C         141.2484  137.8989  164.8620 C.ar    1  UNL1       -0.0032
     18 C         139.8075  137.8393  164.4496 C.ar    1  UNL1       -0.0110
     19 C         139.4419  137.8673  162.9951 C.ar    1  UNL1       -0.0032
     20 C         140.5172  137.9548  161.9530 C.ar    1  UNL1        0.0061
     21 C         143.0335  138.1019  161.3233 C.2     1  UNL1        0.3413
     22 O         144.1577  139.0815  161.4862 O.2     1  UNL1       -0.2449
     23 C         142.7006  137.7920  158.7654 C.3     1  UNL1        0.2560
     24 O         142.9846  137.2099  160.1183 O.3     1  UNL1       -0.4413
@<TRIPOS>BOND
     1    23    24    1
     2    24    21    1
     3    21    22    2
     4    21    15    1
     5    15    16   ar
     6    16    17   ar
     7    17    18   ar
     8    18    14    1
     9    14     1    1
    10     1     2    1
    11     2     3   ar
    12     3     4   ar
    13     4     5   ar
    14     5     6   ar
    15     6     7   ar
    16     7     8    1
    17     7     9   ar
    18     9    10   ar
    19    10    11   ar
    20    18    19   ar
    21    19    20   ar
    22    20    15   ar
    23    11     2   ar
    24    10     5   ar
    25     8    12    1
    26     8    13    1
@<TRIPOS>MOLECULE
*****
 24 26 0 0 0
SMALL
GASTEIGER

@<TRIPOS>ATOM
      1 S         143.1251  138.9002  166.2923 S.3     1  UNL1       -0.1088
      2 C         142.4708  140.0781  166.9516 C.ar    1  UNL1        0.0261
      3 C         142.5752  141.4391  166.3299 C.ar    1  UNL1        0.0077
      4 C         141.9210  142.6169  166.9891 C.ar    1  UNL1        0.0202
      5 C         141.1623  142.4337  168.2701 C.ar    1  UNL1        0.0893
      6 N         140.4188  143.4005  169.1434 N.ar    1  UNL1       -0.2245
      7 C         139.8548  142.6369  170.3047 C.ar    1  UNL1        0.1567
      8 N         139.0391  143.2111  171.4250 N.pl3   1  UNL1       -0.3375
      9 S         140.2499  141.1982  170.1493 S.2     1  UNL1       -0.0520
     10 C         141.0580  141.0726  168.8918 C.ar    1  UNL1        0.0502
     11 C         141.7122  139.8948  168.2326 C.ar    1  UNL1        0.0142
     12 H         138.8307  144.1732  171.4392 H       1  UNL1        0.1442
     13 H         138.7120  142.6259  172.1460 H       1  UNL1        0.1442
     14 C         142.3385  138.0328  165.3549 C.3     1  UNL1        0.0884
     15 C         138.8939  139.7696  163.0380 C.ar    1  UNL1        0.0756
     16 C         140.3033  140.0369  162.5997 C.ar    1  UNL1        0.0061
     17 C         141.4515  139.4580  163.3719 C.ar    1  UNL1       -0.0032
     18 C         141.1903  138.6118  164.5826 C.ar    1  UNL1       -0.0110
     19 C         139.7809  138.3445  165.0209 C.ar    1  UNL1       -0.0032
     20 C         138.6327  138.9235  164.2487 C.ar    1  UNL1        0.0061
     21 C         137.7457  140.3486  162.2657 C.2     1  UNL1        0.3413
     22 O         137.3646  139.7645  160.9377 O.2     1  UNL1       -0.2449
     23 C         137.7102  142.6649  163.4418 C.3     1  UNL1        0.2560
     24 O         136.9786  141.5117  162.8213 O.3     1  UNL1       -0.4413
@<TRIPOS>BOND
     1    23    24    1
     2    24    21    1
     3    21    22    2
     4    21    15    1
     5    15    16   ar
     6    16    17   ar
     7    17    18   ar
     8    18    14    1
     9    14     1    1
    10     1     2    1
    11     2     3   ar
    12     3     4   ar
    13     4     5   ar
    14     5     6   ar
    15     6     7   ar
    16     7     8    1
    17     7     9   ar
    18     9    10   ar
    19    10    11   ar
    20    18    19   ar
    21    19    20   ar
    22    20    15   ar
    23    11     2   ar
    24    10     5   ar
    25     8    12    1
    26     8    13    1
@<TRIPOS>MOLECULE
*****
 24 26 0 0 0
SMALL
GASTEIGER

@<TRIPOS>ATOM
      1 S         139.1556  139.7779  167.1036 S.3     1  UNL1       -0.1088
      2 C         138.9491  139.3518  165.6802 C.ar    1  UNL1        0.0261
      3 C         139.2202  137.9333  165.2751 C.ar    1  UNL1        0.0077
      4 C         139.0138  137.5073  163.8518 C.ar    1  UNL1        0.0202
      5 C         138.5363  138.4998  162.8336 C.ar    1  UNL1        0.0893
      6 N         138.2445  138.3725  161.3677 N.ar    1  UNL1       -0.2245
      7 C         137.7931  139.7124  160.8669 C.ar    1  UNL1        0.1567
      8 N         137.3981  140.0395  159.4572 N.pl3   1  UNL1       -0.3375
      9 S         137.8059  140.6678  162.0232 S.2     1  UNL1       -0.0520
     10 C         138.2652  139.9184  163.2387 C.ar    1  UNL1        0.0502
     11 C         138.4716  140.3444  164.6620 C.ar    1  UNL1        0.0142
     12 H         137.4226  139.3406  158.7643 H       1  UNL1        0.1442
     13 H         137.1145  140.9532  159.2249 H       1  UNL1        0.1442
     14 C         140.5430  140.0157  167.6216 C.3     1  UNL1        0.0884
     15 C         143.7111  141.6744  164.8900 C.ar    1  UNL1        0.0756
     16 C         143.6315  140.1969  165.1359 C.ar    1  UNL1        0.0061
     17 C         142.5755  139.6439  166.0465 C.ar    1  UNL1       -0.0032
     18 C         141.5991  140.5686  166.7110 C.ar    1  UNL1       -0.0110
     19 C         141.6787  142.0461  166.4650 C.ar    1  UNL1       -0.0032
     20 C         142.7347  142.5991  165.5545 C.ar    1  UNL1        0.0061
     21 C         144.7672  142.2273  163.9794 C.2     1  UNL1        0.3413
     22 O         146.0537  141.4815  163.7832 O.2     1  UNL1       -0.2449
     23 C         143.9007  143.5321  161.9066 C.3     1  UNL1        0.2560
     24 O         144.5367  143.5260  163.2651 O.3     1  UNL1       -0.4413
@<TRIPOS>BOND
     1    23    24    1
     2    24    21    1
     3    21    22    2
     4    21    15    1
     5    15    16   ar
     6    16    17   ar
     7    17    18   ar
     8    18    14    1
     9    14     1    1
    10     1     2    1
    11     2     3   ar
    12     3     4   ar
    13     4     5   ar
    14     5     6   ar
    15     6     7   ar
    16     7     8    1
    17     7     9   ar
    18     9    10   ar
    19    10    11   ar
    20    18    19   ar
    21    19    20   ar
    22    20    15   ar
    23    11     2   ar
    24    10     5   ar
    25     8    12    1
    26     8    13    1
@<TRIPOS>MOLECULE
*****
 24 26 0 0 0
SMALL
GASTEIGER

@<TRIPOS>ATOM
      1 S         139.8505  139.3219  166.0381 S.3     1  UNL1       -0.1088
      2 C         140.1452  140.0765  167.3005 C.ar    1  UNL1        0.0261
      3 C         139.1785  140.0278  168.4464 C.ar    1  UNL1        0.0077
      4 C         139.4733  140.7825  169.7088 C.ar    1  UNL1        0.0202
      5 C         140.7346  141.5859  169.8252 C.ar    1  UNL1        0.0893
      6 N         141.2904  142.4263  170.9365 N.ar    1  UNL1       -0.2245
      7 C         142.6005  142.9944  170.4773 C.ar    1  UNL1        0.1567
      8 N         143.4989  143.8940  171.2734 N.pl3   1  UNL1       -0.3375
      9 S         142.8544  142.5051  169.0823 S.2     1  UNL1       -0.0520
     10 C         141.7013  141.6346  168.6793 C.ar    1  UNL1        0.0502
     11 C         141.4065  140.8799  167.4169 C.ar    1  UNL1        0.0142
     12 H         143.2443  144.1615  172.1860 H       1  UNL1        0.1442
     13 H         144.3432  144.2169  170.8832 H       1  UNL1        0.1442
     14 C         138.7612  139.7919  165.1202 C.3     1  UNL1        0.0884
     15 C         139.3631  143.4844  162.6197 C.ar    1  UNL1        0.0756
     16 C         140.4227  142.4234  162.6576 C.ar    1  UNL1        0.0061
     17 C         140.2220  141.1925  163.4911 C.ar    1  UNL1       -0.0032
     18 C         138.9618  141.0228  164.2867 C.ar    1  UNL1       -0.0110
     19 C         137.9022  142.0838  164.2488 C.ar    1  UNL1       -0.0032
     20 C         138.1029  143.3146  163.4152 C.ar    1  UNL1        0.0061
     21 C         139.5637  144.7153  161.7861 C.2     1  UNL1        0.3413
     22 O         139.8255  146.0353  162.4487 O.2     1  UNL1       -0.2449
     23 C         140.7567  144.7632  159.4787 C.3     1  UNL1        0.2560
     24 O         139.5026  144.6261  160.2900 O.3     1  UNL1       -0.4413
@<TRIPOS>BOND
     1    23    24    1
     2    24    21    1
     3    21    22    2
     4    21    15    1
     5    15    16   ar
     6    16    17   ar
     7    17    18   ar
     8    18    14    1
     9    14     1    1
    10     1     2    1
    11     2     3   ar
    12     3     4   ar
    13     4     5   ar
    14     5     6   ar
    15     6     7   ar
    16     7     8    1
    17     7     9   ar
    18     9    10   ar
    19    10    11   ar
    20    18    19   ar
    21    19    20   ar
    22    20    15   ar
    23    11     2   ar
    24    10     5   ar
    25     8    12    1
    26     8    13    1
@<TRIPOS>MOLECULE
*****
 24 26 0 0 0
SMALL
GASTEIGER

@<TRIPOS>ATOM
      1 S         139.5736  138.7689  163.5277 S.3     1  UNL1       -0.1088
      2 C         139.1751  140.1998  163.3181 C.ar    1  UNL1        0.0261
      3 C         137.7322  140.5982  163.4134 C.ar    1  UNL1        0.0077
      4 C         137.3338  142.0290  163.2037 C.ar    1  UNL1        0.0202
      5 C         138.3783  143.0614  162.8988 C.ar    1  UNL1        0.0893
      6 N         138.2871  144.5372  162.6457 N.ar    1  UNL1       -0.2245
      7 C         139.6738  145.0508  162.3939 C.ar    1  UNL1        0.1567
      8 N         140.0469  146.4730  162.0968 N.pl3   1  UNL1       -0.3375
      9 S         140.6219  143.8925  162.4915 S.2     1  UNL1       -0.0520
     10 C         139.8213  142.6630  162.8035 C.ar    1  UNL1        0.0502
     11 C         140.2197  141.2322  163.0131 C.ar    1  UNL1        0.0142
     12 H         139.3491  147.1662  162.0535 H       1  UNL1        0.1442
     13 H         140.9895  146.7132  161.9451 H       1  UNL1        0.1442
     14 C         139.7753  138.2425  164.9177 C.3     1  UNL1        0.0884
     15 C         142.0709  140.6703  167.9320 C.ar    1  UNL1        0.0756
     16 C         142.8056  139.8568  166.9080 C.ar    1  UNL1        0.0061
     17 C         142.0404  139.0476  165.9033 C.ar    1  UNL1       -0.0032
     18 C         140.5406  139.0518  165.9225 C.ar    1  UNL1       -0.0110
     19 C         139.8059  139.8653  166.9465 C.ar    1  UNL1       -0.0032
     20 C         140.5711  140.6745  167.9512 C.ar    1  UNL1        0.0061
     21 C         142.8362  141.4796  168.9368 C.2     1  UNL1        0.3413
     22 O         143.6657  142.6452  168.4859 O.2     1  UNL1       -0.2449
     23 C         141.6711  141.6719  171.2509 C.3     1  UNL1        0.2560
     24 O         142.7719  141.1233  170.3924 O.3     1  UNL1       -0.4413
@<TRIPOS>BOND
     1    23    24    1
     2    24    21    1
     3    21    22    2
     4    21    15    1
     5    15    16   ar
     6    16    17   ar
     7    17    18   ar
     8    18    14    1
     9    14     1    1
    10     1     2    1
    11     2     3   ar
    12     3     4   ar
    13     4     5   ar
    14     5     6   ar
    15     6     7   ar
    16     7     8    1
    17     7     9   ar
    18     9    10   ar
    19    10    11   ar
    20    18    19   ar
    21    19    20   ar
    22    20    15   ar
    23    11     2   ar
    24    10     5   ar
    25     8    12    1
    26     8    13    1
