@<TRIPOS>MOLECULE
*****
 23 24 0 0 0
SMALL
GASTEIGER

@<TRIPOS>ATOM
      1 C         138.3006  139.7471  162.9792 C.ar    1  UNL1        0.0314
      2 C         138.1949  140.6798  161.8092 C.ar    1  UNL1        0.0401
      3 C         138.0886  142.1587  162.0361 C.ar    1  UNL1        0.1723
      4 C         138.0880  142.7050  163.4331 C.ar    1  UNL1        0.1754
      5 C         138.1936  141.7724  164.6031 C.ar    1  UNL1        0.0772
      6 C         138.2999  140.2934  164.3762 C.ar    1  UNL1        0.1458
      7 O         137.9830  143.0913  160.8660 O.3     1  UNL1       -0.4684
      8 C         138.9997  143.0312  159.7648 C.3     1  UNL1        0.2526
      9 O         137.9817  144.1839  163.6600 O.3     1  UNL1       -0.4683
     10 C         138.5684  144.7970  164.8969 C.3     1  UNL1        0.2526
     11 C         138.4068  138.2682  162.7523 C.3     1  UNL1        0.0988
     12 C         140.8859  137.4953  162.8362 C.3     1  UNL1        0.0861
     13 N         139.5016  137.4847  163.4138 N.3     1  UNL1       -0.2925
     14 H         139.5783  137.8346  164.3688 H       1  UNL1        0.1236
     15 O         138.4056  139.3608  165.5463 O.3     1  UNL1       -0.4536
     16 C         139.4925  139.5521  166.5621 C.ar    1  UNL1        0.1462
     17 C         140.9312  139.4598  166.1476 C.ar    1  UNL1        0.0384
     18 C         142.0181  139.6511  167.1634 C.ar    1  UNL1        0.0154
     19 C         141.6665  139.9348  168.5938 C.ar    1  UNL1        0.0684
     20 CL        142.7534  140.1261  169.6096 Cl      1  UNL1       -0.0814
     21 C         140.2279  140.0271  169.0083 C.ar    1  UNL1        0.0712
     22 CL        139.8762  140.3107  170.4386 Cl      1  UNL1       -0.0813
     23 C         139.1408  139.8357  167.9924 C.ar    1  UNL1        0.0497
@<TRIPOS>BOND
     1    12    13    1
     2    13    11    1
     3    11     1    1
     4     1     2   ar
     5     2     3   ar
     6     3     7    1
     7     7     8    1
     8     3     4   ar
     9     4     9    1
    10     9    10    1
    11     4     5   ar
    12     5     6   ar
    13     6    15    1
    14    15    16    1
    15    16    17   ar
    16    17    18   ar
    17    18    19   ar
    18    19    20    1
    19    19    21   ar
    20    21    22    1
    21    21    23   ar
    22     6     1   ar
    23    23    16   ar
    24    13    14    1
@<TRIPOS>MOLECULE
*****
 23 24 0 0 0
SMALL
GASTEIGER

@<TRIPOS>ATOM
      1 C         140.3540  138.0889  163.7415 C.ar    1  UNL1        0.0314
      2 C         141.3578  137.7721  162.6728 C.ar    1  UNL1        0.0401
      3 C         142.7953  138.1597  162.8554 C.ar    1  UNL1        0.1723
      4 C         143.2290  138.8641  164.1067 C.ar    1  UNL1        0.1754
      5 C         142.2253  139.1809  165.1753 C.ar    1  UNL1        0.0772
      6 C         140.7877  138.7933  164.9927 C.ar    1  UNL1        0.1458
      7 O         143.7991  137.8428  161.7867 O.3     1  UNL1       -0.4684
      8 C         144.0616  138.8297  160.6880 C.3     1  UNL1        0.2526
      9 O         144.6665  139.2517  164.2893 O.3     1  UNL1       -0.4683
     10 C         145.1463  140.5943  163.8235 C.3     1  UNL1        0.2526
     11 C         138.9165  137.7013  163.5588 C.3     1  UNL1        0.0988
     12 C         137.8993  138.9834  161.5411 C.3     1  UNL1        0.0861
     13 N         138.3103  137.6934  162.1868 N.3     1  UNL1       -0.2925
     14 H         138.9923  137.2576  161.5661 H       1  UNL1        0.1236
     15 O         139.7839  139.1102  166.0614 O.3     1  UNL1       -0.4536
     16 C         140.0003  140.2846  166.9691 C.ar    1  UNL1        0.1462
     17 C         140.0849  141.6688  166.3973 C.ar    1  UNL1        0.0384
     18 C         140.3012  142.8433  167.3050 C.ar    1  UNL1        0.0154
     19 C         140.4329  142.6335  168.7844 C.ar    1  UNL1        0.0684
     20 CL        140.6492  143.8079  169.6921 Cl      1  UNL1       -0.0814
     21 C         140.3483  141.2494  169.3562 C.ar    1  UNL1        0.0712
     22 CL        140.4800  141.0397  170.8356 Cl      1  UNL1       -0.0813
     23 C         140.1319  140.0749  168.4485 C.ar    1  UNL1        0.0497
@<TRIPOS>BOND
     1    12    13    1
     2    13    11    1
     3    11     1    1
     4     1     2   ar
     5     2     3   ar
     6     3     7    1
     7     7     8    1
     8     3     4   ar
     9     4     9    1
    10     9    10    1
    11     4     5   ar
    12     5     6   ar
    13     6    15    1
    14    15    16    1
    15    16    17   ar
    16    17    18   ar
    17    18    19   ar
    18    19    20    1
    19    19    21   ar
    20    21    22    1
    21    21    23   ar
    22     6     1   ar
    23    23    16   ar
    24    13    14    1
@<TRIPOS>MOLECULE
*****
 23 24 0 0 0
SMALL
GASTEIGER

@<TRIPOS>ATOM
      1 C         138.5220  142.9729  164.1012 C.ar    1  UNL1        0.0314
      2 C         138.5672  144.0149  163.0233 C.ar    1  UNL1        0.0401
      3 C         139.7623  144.9127  162.8976 C.ar    1  UNL1        0.1723
      4 C         140.9122  144.7685  163.8499 C.ar    1  UNL1        0.1754
      5 C         140.8670  143.7264  164.9278 C.ar    1  UNL1        0.0772
      6 C         139.6719  142.8286  165.0535 C.ar    1  UNL1        0.1458
      7 O         139.8074  145.9548  161.8195 O.3     1  UNL1       -0.4684
      8 C         140.2862  145.5918  160.4451 C.3     1  UNL1        0.2526
      9 O         142.1072  145.6663  163.7242 O.3     1  UNL1       -0.4683
     10 C         143.4857  145.0772  163.6727 C.3     1  UNL1        0.2526
     11 C         137.3270  142.0751  164.2269 C.3     1  UNL1        0.0988
     12 C         137.7010  140.2458  162.4203 C.3     1  UNL1        0.0861
     13 N         136.8373  141.3069  163.0353 N.3     1  UNL1       -0.2925
     14 H         135.9674  140.8534  163.3144 H       1  UNL1        0.1236
     15 O         139.6268  141.7866  166.1316 O.3     1  UNL1       -0.4536
     16 C         140.7427  140.7926  166.2610 C.ar    1  UNL1        0.1462
     17 C         141.3834  140.5539  167.5962 C.ar    1  UNL1        0.0384
     18 C         142.4992  139.5599  167.7256 C.ar    1  UNL1        0.0154
     19 C         142.9744  138.8045  166.5200 C.ar    1  UNL1        0.0684
     20 CL        144.0903  137.8105  166.6494 Cl      1  UNL1       -0.0814
     21 C         142.3338  139.0432  165.1849 C.ar    1  UNL1        0.0712
     22 CL        142.8090  138.2878  163.9792 Cl      1  UNL1       -0.0813
     23 C         141.2179  140.0372  165.0554 C.ar    1  UNL1        0.0497
@<TRIPOS>BOND
     1    12    13    1
     2    13    11    1
     3    11     1    1
     4     1     2   ar
     5     2     3   ar
     6     3     7    1
     7     7     8    1
     8     3     4   ar
     9     4     9    1
    10     9    10    1
    11     4     5   ar
    12     5     6   ar
    13     6    15    1
    14    15    16    1
    15    16    17   ar
    16    17    18   ar
    17    18    19   ar
    18    19    20    1
    19    19    21   ar
    20    21    22    1
    21    21    23   ar
    22     6     1   ar
    23    23    16   ar
    24    13    14    1
@<TRIPOS>MOLECULE
*****
 23 24 0 0 0
SMALL
GASTEIGER

@<TRIPOS>ATOM
      1 C         139.0170  139.8815  166.9254 C.ar    1  UNL1        0.0314
      2 C         139.1240  139.8396  168.4209 C.ar    1  UNL1        0.0401
      3 C         139.8451  140.9330  169.1521 C.ar    1  UNL1        0.1723
      4 C         140.4592  142.0681  168.3878 C.ar    1  UNL1        0.1754
      5 C         140.3522  142.1099  166.8922 C.ar    1  UNL1        0.0772
      6 C         139.6311  141.0166  166.1610 C.ar    1  UNL1        0.1458
      7 O         139.9520  140.8911  170.6478 O.3     1  UNL1       -0.4684
      8 C         141.2776  140.6255  171.2977 C.3     1  UNL1        0.2526
      9 O         141.1803  143.1614  169.1190 O.3     1  UNL1       -0.4683
     10 C         140.4063  144.1603  169.9272 C.3     1  UNL1        0.2526
     11 C         138.2959  138.7881  166.1942 C.3     1  UNL1        0.0988
     12 C         140.1178  137.5861  164.7850 C.3     1  UNL1        0.0861
     13 N         138.8065  138.3097  164.8674 N.3     1  UNL1       -0.2925
     14 H         138.0986  137.6804  164.4890 H       1  UNL1        0.1236
     15 O         139.5241  141.0585  164.6654 O.3     1  UNL1       -0.4536
     16 C         139.5427  142.3760  163.9487 C.ar    1  UNL1        0.1462
     17 C         138.3203  143.2453  163.9454 C.ar    1  UNL1        0.0384
     18 C         138.3389  144.5629  163.2287 C.ar    1  UNL1        0.0154
     19 C         139.5799  145.0112  162.5154 C.ar    1  UNL1        0.0684
     20 CL        139.5985  146.3288  161.7987 Cl      1  UNL1       -0.0814
     21 C         140.8023  144.1420  162.5187 C.ar    1  UNL1        0.0712
     22 CL        142.0434  144.5903  161.8053 Cl      1  UNL1       -0.0813
     23 C         140.7838  142.8243  163.2354 C.ar    1  UNL1        0.0497
@<TRIPOS>BOND
     1    12    13    1
     2    13    11    1
     3    11     1    1
     4     1     2   ar
     5     2     3   ar
     6     3     7    1
     7     7     8    1
     8     3     4   ar
     9     4     9    1
    10     9    10    1
    11     4     5   ar
    12     5     6   ar
    13     6    15    1
    14    15    16    1
    15    16    17   ar
    16    17    18   ar
    17    18    19   ar
    18    19    20    1
    19    19    21   ar
    20    21    22    1
    21    21    23   ar
    22     6     1   ar
    23    23    16   ar
    24    13    14    1
@<TRIPOS>MOLECULE
*****
 23 24 0 0 0
SMALL
GASTEIGER

@<TRIPOS>ATOM
      1 C         142.8402  143.7037  164.3379 C.ar    1  UNL1        0.0314
      2 C         142.3181  144.8613  163.5395 C.ar    1  UNL1        0.0401
      3 C         140.8703  144.9120  163.1506 C.ar    1  UNL1        0.1723
      4 C         139.9445  143.8052  163.5601 C.ar    1  UNL1        0.1754
      5 C         140.4666  142.6476  164.3586 C.ar    1  UNL1        0.0772
      6 C         141.9144  142.5969  164.7474 C.ar    1  UNL1        0.1458
      7 O         140.3483  146.0696  162.3521 O.3     1  UNL1       -0.4684
      8 C         140.0592  145.9024  160.8898 C.3     1  UNL1        0.2526
      9 O         138.4967  143.8559  163.1713 O.3     1  UNL1       -0.4683
     10 C         137.9148  142.7789  162.3044 C.3     1  UNL1        0.2526
     11 C         144.2880  143.6530  164.7268 C.3     1  UNL1        0.0988
     12 C         145.4060  141.9632  163.1006 C.3     1  UNL1        0.0861
     13 N         145.0826  142.4015  164.4982 N.3     1  UNL1       -0.2925
     14 H         145.9724  142.5253  164.9812 H       1  UNL1        0.1236
     15 O         142.4364  141.4393  165.5459 O.3     1  UNL1       -0.4536
     16 C         142.0894  141.3138  166.9998 C.ar    1  UNL1        0.1462
     17 C         141.1258  140.2570  167.4524 C.ar    1  UNL1        0.0384
     18 C         140.7787  140.1315  168.9062 C.ar    1  UNL1        0.0154
     19 C         141.3953  141.0627  169.9076 C.ar    1  UNL1        0.0684
     20 CL        141.0483  140.9372  171.3615 Cl      1  UNL1       -0.0814
     21 C         142.3589  142.1194  169.4551 C.ar    1  UNL1        0.0712
     22 CL        142.9754  143.0507  170.4564 Cl      1  UNL1       -0.0813
     23 C         142.7059  142.2450  168.0012 C.ar    1  UNL1        0.0497
@<TRIPOS>BOND
     1    12    13    1
     2    13    11    1
     3    11     1    1
     4     1     2   ar
     5     2     3   ar
     6     3     7    1
     7     7     8    1
     8     3     4   ar
     9     4     9    1
    10     9    10    1
    11     4     5   ar
    12     5     6   ar
    13     6    15    1
    14    15    16    1
    15    16    17   ar
    16    17    18   ar
    17    18    19   ar
    18    19    20    1
    19    19    21   ar
    20    21    22    1
    21    21    23   ar
    22     6     1   ar
    23    23    16   ar
    24    13    14    1
@<TRIPOS>MOLECULE
*****
 23 24 0 0 0
SMALL
GASTEIGER

@<TRIPOS>ATOM
      1 C         138.6014  143.0070  163.5234 C.ar    1  UNL1        0.0314
      2 C         138.8340  144.0091  162.4318 C.ar    1  UNL1        0.0401
      3 C         140.0591  144.8743  162.4564 C.ar    1  UNL1        0.1723
      4 C         141.0516  144.7374  163.5727 C.ar    1  UNL1        0.1754
      5 C         140.8190  143.7354  164.6643 C.ar    1  UNL1        0.0772
      6 C         139.5939  142.8702  164.6397 C.ar    1  UNL1        0.1458
      7 O         140.2916  145.8763  161.3646 O.3     1  UNL1       -0.4684
      8 C         140.7572  145.4194  160.0139 C.3     1  UNL1        0.2526
      9 O         142.2767  145.6026  163.5973 O.3     1  UNL1       -0.4683
     10 C         143.6371  144.9796  163.4925 C.3     1  UNL1        0.2526
     11 C         137.3763  142.1419  163.4988 C.3     1  UNL1        0.0988
     12 C         138.1594  139.7316  162.9266 C.3     1  UNL1        0.0861
     13 N         137.4769  140.6890  163.8580 N.3     1  UNL1       -0.2925
     14 H         137.9738  140.6393  164.7474 H       1  UNL1        0.1236
     15 O         139.3614  141.8681  165.7315 O.3     1  UNL1       -0.4536
     16 C         140.3867  141.6831  166.8105 C.ar    1  UNL1        0.1462
     17 C         141.2968  140.4909  166.7839 C.ar    1  UNL1        0.0384
     18 C         142.3221  140.3058  167.8630 C.ar    1  UNL1        0.0154
     19 C         142.4375  141.3129  168.9686 C.ar    1  UNL1        0.0684
     20 CL        143.4629  141.1279  170.0476 Cl      1  UNL1       -0.0814
     21 C         141.5276  142.5051  168.9952 C.ar    1  UNL1        0.0712
     22 CL        141.6430  143.5122  170.1009 Cl      1  UNL1       -0.0813
     23 C         140.5021  142.6902  167.9162 C.ar    1  UNL1        0.0497
@<TRIPOS>BOND
     1    12    13    1
     2    13    11    1
     3    11     1    1
     4     1     2   ar
     5     2     3   ar
     6     3     7    1
     7     7     8    1
     8     3     4   ar
     9     4     9    1
    10     9    10    1
    11     4     5   ar
    12     5     6   ar
    13     6    15    1
    14    15    16    1
    15    16    17   ar
    16    17    18   ar
    17    18    19   ar
    18    19    20    1
    19    19    21   ar
    20    21    22    1
    21    21    23   ar
    22     6     1   ar
    23    23    16   ar
    24    13    14    1
@<TRIPOS>MOLECULE
*****
 23 24 0 0 0
SMALL
GASTEIGER

@<TRIPOS>ATOM
      1 C         139.2804  143.8572  163.2011 C.ar    1  UNL1        0.0314
      2 C         139.7819  144.1689  161.8222 C.ar    1  UNL1        0.0401
      3 C         141.2281  144.5044  161.6081 C.ar    1  UNL1        0.1723
      4 C         142.1729  144.5282  162.7729 C.ar    1  UNL1        0.1754
      5 C         141.6714  144.2165  164.1518 C.ar    1  UNL1        0.0772
      6 C         140.2252  143.8810  164.3659 C.ar    1  UNL1        0.1458
      7 O         141.7295  144.8161  160.2291 O.3     1  UNL1       -0.4684
      8 C         140.7849  145.3397  159.1882 C.3     1  UNL1        0.2526
      9 O         143.6191  144.8637  162.5588 O.3     1  UNL1       -0.4683
     10 C         144.6187  143.7673  162.3382 C.3     1  UNL1        0.2526
     11 C         137.8342  143.5217  163.4152 C.3     1  UNL1        0.0988
     12 C         137.8338  140.9271  163.5495 C.3     1  UNL1        0.0861
     13 N         137.4551  142.2580  164.1287 N.3     1  UNL1       -0.2925
     14 H         137.8763  142.3060  165.0565 H       1  UNL1        0.1236
     15 O         139.7238  143.5693  165.7448 O.3     1  UNL1       -0.4536
     16 C         140.3942  142.5068  166.5643 C.ar    1  UNL1        0.1462
     17 C         140.6072  142.7161  168.0343 C.ar    1  UNL1        0.0384
     18 C         141.2776  141.6535  168.8538 C.ar    1  UNL1        0.0154
     19 C         141.7350  140.3817  168.2033 C.ar    1  UNL1        0.0684
     20 CL        142.4054  139.3191  169.0227 Cl      1  UNL1       -0.0814
     21 C         141.5220  140.1724  166.7333 C.ar    1  UNL1        0.0712
     22 CL        141.9794  138.9005  166.0828 Cl      1  UNL1       -0.0813
     23 C         140.8516  141.2349  165.9138 C.ar    1  UNL1        0.0497
@<TRIPOS>BOND
     1    12    13    1
     2    13    11    1
     3    11     1    1
     4     1     2   ar
     5     2     3   ar
     6     3     7    1
     7     7     8    1
     8     3     4   ar
     9     4     9    1
    10     9    10    1
    11     4     5   ar
    12     5     6   ar
    13     6    15    1
    14    15    16    1
    15    16    17   ar
    16    17    18   ar
    17    18    19   ar
    18    19    20    1
    19    19    21   ar
    20    21    22    1
    21    21    23   ar
    22     6     1   ar
    23    23    16   ar
    24    13    14    1
@<TRIPOS>MOLECULE
*****
 23 24 0 0 0
SMALL
GASTEIGER

@<TRIPOS>ATOM
      1 C         138.1873  142.0499  163.7778 C.ar    1  UNL1        0.0314
      2 C         137.8181  140.9523  162.8245 C.ar    1  UNL1        0.0401
      3 C         138.2984  139.5526  163.0700 C.ar    1  UNL1        0.1723
      4 C         139.1478  139.2505  164.2688 C.ar    1  UNL1        0.1754
      5 C         139.5169  140.3482  165.2222 C.ar    1  UNL1        0.0772
      6 C         139.0367  141.7478  164.9767 C.ar    1  UNL1        0.1458
      7 O         137.9292  138.4549  162.1165 O.3     1  UNL1       -0.4684
      8 C         138.8502  138.1019  160.9865 C.3     1  UNL1        0.2526
      9 O         139.6280  137.8509  164.5143 O.3     1  UNL1       -0.4683
     10 C         140.9610  137.4117  163.9851 C.3     1  UNL1        0.2526
     11 C         137.7070  143.4496  163.5323 C.3     1  UNL1        0.0988
     12 C         139.4394  145.0278  162.4107 C.3     1  UNL1        0.0861
     13 N         138.1865  144.2069  162.3297 N.3     1  UNL1       -0.2925
     14 H         138.3311  143.5214  161.5884 H       1  UNL1        0.1236
     15 O         139.4058  142.8455  165.9301 O.3     1  UNL1       -0.4536
     16 C         140.5707  142.6718  166.8590 C.ar    1  UNL1        0.1462
     17 C         141.9545  142.5070  166.3039 C.ar    1  UNL1        0.0384
     18 C         143.1194  142.3333  167.2328 C.ar    1  UNL1        0.0154
     19 C         142.9005  142.3244  168.7167 C.ar    1  UNL1        0.0684
     20 CL        144.0654  142.1508  169.6456 Cl      1  UNL1       -0.0814
     21 C         141.5168  142.4893  169.2718 C.ar    1  UNL1        0.0712
     22 CL        141.2980  142.4805  170.7557 Cl      1  UNL1       -0.0813
     23 C         140.3519  142.6630  168.3429 C.ar    1  UNL1        0.0497
@<TRIPOS>BOND
     1    12    13    1
     2    13    11    1
     3    11     1    1
     4     1     2   ar
     5     2     3   ar
     6     3     7    1
     7     7     8    1
     8     3     4   ar
     9     4     9    1
    10     9    10    1
    11     4     5   ar
    12     5     6   ar
    13     6    15    1
    14    15    16    1
    15    16    17   ar
    16    17    18   ar
    17    18    19   ar
    18    19    20    1
    19    19    21   ar
    20    21    22    1
    21    21    23   ar
    22     6     1   ar
    23    23    16   ar
    24    13    14    1
@<TRIPOS>MOLECULE
*****
 23 24 0 0 0
SMALL
GASTEIGER

@<TRIPOS>ATOM
      1 C         143.1540  141.6791  165.4936 C.ar    1  UNL1        0.0314
      2 C         143.2270  142.5416  166.7186 C.ar    1  UNL1        0.0401
      3 C         143.0262  141.9353  168.0759 C.ar    1  UNL1        0.1723
      4 C         142.7525  140.4664  168.2081 C.ar    1  UNL1        0.1754
      5 C         142.6795  139.6039  166.9831 C.ar    1  UNL1        0.0772
      6 C         142.8802  140.2102  165.6259 C.ar    1  UNL1        0.1458
      7 O         143.0992  142.7979  169.3009 O.3     1  UNL1       -0.4684
      8 C         141.8394  143.2194  169.9975 C.3     1  UNL1        0.2526
      9 O         142.5518  139.8601  169.5653 O.3     1  UNL1       -0.4683
     10 C         141.1641  139.6319  170.0870 C.3     1  UNL1        0.2526
     11 C         143.3547  142.2854  164.1364 C.3     1  UNL1        0.0988
     12 C         145.7851  141.4754  163.7042 C.3     1  UNL1        0.0861
     13 N         144.3908  141.7226  163.2093 N.3     1  UNL1       -0.2925
     14 H         144.0332  140.8270  162.8770 H       1  UNL1        0.1236
     15 O         142.8072  139.3476  164.4008 O.3     1  UNL1       -0.4536
     16 C         141.4896  139.1200  163.7213 C.ar    1  UNL1        0.1462
     17 C         141.3556  138.0424  162.6864 C.ar    1  UNL1        0.0384
     18 C         140.0379  137.8147  162.0069 C.ar    1  UNL1        0.0154
     19 C         138.8541  138.6646  162.3621 C.ar    1  UNL1        0.0684
     20 CL        137.5364  138.4370  161.6826 Cl      1  UNL1       -0.0814
     21 C         138.9880  139.7422  163.3970 C.ar    1  UNL1        0.0712
     22 CL        137.8042  140.5921  163.7522 Cl      1  UNL1       -0.0813
     23 C         140.3057  139.9699  164.0766 C.ar    1  UNL1        0.0497
@<TRIPOS>BOND
     1    12    13    1
     2    13    11    1
     3    11     1    1
     4     1     2   ar
     5     2     3   ar
     6     3     7    1
     7     7     8    1
     8     3     4   ar
     9     4     9    1
    10     9    10    1
    11     4     5   ar
    12     5     6   ar
    13     6    15    1
    14    15    16    1
    15    16    17   ar
    16    17    18   ar
    17    18    19   ar
    18    19    20    1
    19    19    21   ar
    20    21    22    1
    21    21    23   ar
    22     6     1   ar
    23    23    16   ar
    24    13    14    1
