@<TRIPOS>MOLECULE
*****
 28 31 0 0 0
SMALL
GASTEIGER

@<TRIPOS>ATOM
      1 C         137.5867  142.3636  162.9727 C.3     1  UNL1        0.0721
      2 C         138.3541  142.8765  161.7903 C.3     1  UNL1        0.0191
      3 C         138.2609  142.0467  160.5442 C.3     1  UNL1        0.0061
      4 C         138.9038  142.2869  159.2105 C.3     1  UNL1        0.0258
      5 C         139.7988  143.4160  158.7933 C.ar    1  UNL1       -0.0278
      6 C         140.2269  143.2762  157.3625 C.ar    1  UNL1       -0.0260
      7 C         139.7538  142.1083  156.5489 C.3     1  UNL1        0.0307
      8 C         141.1281  144.3043  156.7455 C.ar    1  UNL1       -0.0046
      9 C         141.6012  145.4723  157.5592 C.ar    1  UNL1       -0.0006
     10 C         141.1731  145.6121  158.9899 C.ar    1  UNL1       -0.0023
     11 C         140.2719  144.5840  159.6070 C.ar    1  UNL1       -0.0000
     12 C         139.9668  144.9112  161.0388 C.3     1  UNL1        0.1324
     13 O         140.5989  146.1640  161.5690 O.3     1  UNL1       -0.3801
     14 C         139.1134  144.1513  162.0105 C.3     1  UNL1        0.0352
     15 H         141.1271  146.5804  160.8700 H       1  UNL1        0.2108
     16 C         139.7838  140.8203  166.5839 C.3     1  UNL1        0.0248
     17 C         139.9319  142.2551  166.1724 C.3     1  UNL1        0.0217
     18 C         139.1996  142.7696  164.9686 C.3     1  UNL1        0.0724
     19 N         138.3190  141.8492  164.1764 N.3     1  UNL1       -0.2727
     20 C         138.1709  140.4143  164.5880 C.3     1  UNL1        0.0724
     21 C         138.9033  139.8999  165.7917 C.3     1  UNL1        0.0217
     22 C         142.5679  139.7403  166.2975 C.3     1  UNL1        0.0307
     23 C         141.9082  139.7658  167.6445 C.ar    1  UNL1       -0.0258
     24 C         142.6406  139.2513  168.8482 C.ar    1  UNL1       -0.0046
     25 C         141.9809  139.2769  170.1950 C.ar    1  UNL1       -0.0003
     26 C         140.5888  139.8169  170.3382 C.ar    1  UNL1       -0.0003
     27 C         139.8565  140.3314  169.1345 C.ar    1  UNL1       -0.0046
     28 C         140.5162  140.3058  167.7877 C.ar    1  UNL1       -0.0264
@<TRIPOS>BOND
     1    22    23    1
     2    23    24   ar
     3    24    25   ar
     4    25    26   ar
     5    26    27   ar
     6    27    28   ar
     7    28    16    1
     8    16    17    1
     9    17    18    1
    10    18    19    1
    11    19     1    1
    12     2     1    1
    13     2     3    1
    14     3     4    1
    15     4     5    1
    16     5     6   ar
    17     6     7    1
    18     6     8   ar
    19     8     9   ar
    20     9    10   ar
    21    10    11   ar
    22    11    12    1
    23    12    13    1
    24    12    14    1
    25    19    20    1
    26    20    21    1
    27    28    23   ar
    28    21    16    1
    29    14     2    1
    30    11     5   ar
    31    13    15    1
@<TRIPOS>MOLECULE
*****
 28 31 0 0 0
SMALL
GASTEIGER

@<TRIPOS>ATOM
      1 C         139.8379  137.3978  163.5790 C.3     1  UNL1        0.0721
      2 C         139.7482  138.0683  162.2402 C.3     1  UNL1        0.0191
      3 C         141.0113  138.0775  161.4311 C.3     1  UNL1        0.0061
      4 C         141.2454  138.6616  160.0695 C.3     1  UNL1        0.0258
      5 C         140.2744  139.3809  159.1807 C.ar    1  UNL1       -0.0278
      6 C         140.9193  139.8051  157.8946 C.ar    1  UNL1       -0.0260
      7 C         142.3642  139.4924  157.6412 C.3     1  UNL1        0.0307
      8 C         140.1191  140.5422  156.8619 C.ar    1  UNL1       -0.0046
      9 C         138.6742  140.8550  157.1153 C.ar    1  UNL1       -0.0006
     10 C         138.0293  140.4307  158.4014 C.ar    1  UNL1       -0.0023
     11 C         138.8294  139.6936  159.4341 C.ar    1  UNL1       -0.0000
     12 C         137.9986  139.3644  160.6388 C.3     1  UNL1        0.1324
     13 O         136.5699  139.8185  160.5879 O.3     1  UNL1       -0.3801
     14 C         138.4074  138.6411  161.8877 C.3     1  UNL1        0.0352
     15 H         136.4047  140.2725  159.7468 H       1  UNL1        0.2108
     16 C         140.3107  139.8723  167.3077 C.3     1  UNL1        0.0248
     17 C         141.5190  139.4774  166.5114 C.3     1  UNL1        0.0217
     18 C         141.3614  138.6526  165.2685 C.3     1  UNL1        0.0724
     19 N         139.9955  138.2226  164.8219 N.3     1  UNL1       -0.2727
     20 C         138.7872  138.6175  165.6182 C.3     1  UNL1        0.0724
     21 C         138.9448  139.4424  166.8611 C.3     1  UNL1        0.0217
     22 C         140.3640  142.8662  167.1243 C.3     1  UNL1        0.0307
     23 C         140.4949  142.1941  168.4589 C.ar    1  UNL1       -0.0258
     24 C         140.6525  143.0190  169.7018 C.ar    1  UNL1       -0.0046
     25 C         140.7835  142.3469  171.0363 C.ar    1  UNL1       -0.0003
     26 C         140.7568  140.8500  171.1280 C.ar    1  UNL1       -0.0003
     27 C         140.5992  140.0251  169.8852 C.ar    1  UNL1       -0.0046
     28 C         140.4683  140.6972  168.5506 C.ar    1  UNL1       -0.0264
@<TRIPOS>BOND
     1    22    23    1
     2    23    24   ar
     3    24    25   ar
     4    25    26   ar
     5    26    27   ar
     6    27    28   ar
     7    28    16    1
     8    16    17    1
     9    17    18    1
    10    18    19    1
    11    19     1    1
    12     2     1    1
    13     2     3    1
    14     3     4    1
    15     4     5    1
    16     5     6   ar
    17     6     7    1
    18     6     8   ar
    19     8     9   ar
    20     9    10   ar
    21    10    11   ar
    22    11    12    1
    23    12    13    1
    24    12    14    1
    25    19    20    1
    26    20    21    1
    27    28    23   ar
    28    21    16    1
    29    14     2    1
    30    11     5   ar
    31    13    15    1
@<TRIPOS>MOLECULE
*****
 28 31 0 0 0
SMALL
GASTEIGER

@<TRIPOS>ATOM
      1 C         140.5209  137.2608  163.4356 C.3     1  UNL1        0.0721
      2 C         140.8590  137.8423  162.0948 C.3     1  UNL1        0.0191
      3 C         139.6894  138.1826  161.2194 C.3     1  UNL1        0.0061
      4 C         139.6940  138.7712  159.8398 C.3     1  UNL1        0.0258
      5 C         140.8691  139.1651  158.9948 C.ar    1  UNL1       -0.0278
      6 C         140.4315  139.7175  157.6707 C.ar    1  UNL1       -0.0260
      7 C         138.9706  139.8151  157.3447 C.3     1  UNL1        0.0307
      8 C         141.4547  140.1723  156.6727 C.ar    1  UNL1       -0.0046
      9 C         142.9156  140.0747  156.9987 C.ar    1  UNL1       -0.0006
     10 C         143.3532  139.5223  158.3228 C.ar    1  UNL1       -0.0023
     11 C         142.3300  139.0675  159.3208 C.ar    1  UNL1       -0.0000
     12 C         142.9765  138.5519  160.5723 C.3     1  UNL1        0.1324
     13 O         144.4760  138.5861  160.5918 O.3     1  UNL1       -0.3801
     14 C         142.3219  138.0067  161.8069 C.3     1  UNL1        0.0352
     15 H         144.8020  138.9524  159.7549 H       1  UNL1        0.2108
     16 C         140.4274  139.9043  167.0760 C.3     1  UNL1        0.0248
     17 C         141.7412  139.4490  166.5134 C.3     1  UNL1        0.0217
     18 C         141.7724  138.5677  165.2998 C.3     1  UNL1        0.0724
     19 N         140.4898  138.1419  164.6490 N.3     1  UNL1       -0.2727
     20 C         139.1760  138.5973  165.2117 C.3     1  UNL1        0.0724
     21 C         139.1448  139.4785  166.4252 C.3     1  UNL1        0.0217
     22 C         140.3973  142.8878  166.7629 C.3     1  UNL1        0.0307
     23 C         140.3812  142.2772  168.1330 C.ar    1  UNL1       -0.0258
     24 C         140.3500  143.1584  169.3464 C.ar    1  UNL1       -0.0046
     25 C         140.3339  142.5479  170.7164 C.ar    1  UNL1       -0.0003
     26 C         140.3489  141.0562  170.8730 C.ar    1  UNL1       -0.0003
     27 C         140.3801  140.1750  169.6595 C.ar    1  UNL1       -0.0046
     28 C         140.3962  140.7855  168.2895 C.ar    1  UNL1       -0.0264
@<TRIPOS>BOND
     1    22    23    1
     2    23    24   ar
     3    24    25   ar
     4    25    26   ar
     5    26    27   ar
     6    27    28   ar
     7    28    16    1
     8    16    17    1
     9    17    18    1
    10    18    19    1
    11    19     1    1
    12     2     1    1
    13     2     3    1
    14     3     4    1
    15     4     5    1
    16     5     6   ar
    17     6     7    1
    18     6     8   ar
    19     8     9   ar
    20     9    10   ar
    21    10    11   ar
    22    11    12    1
    23    12    13    1
    24    12    14    1
    25    19    20    1
    26    20    21    1
    27    28    23   ar
    28    21    16    1
    29    14     2    1
    30    11     5   ar
    31    13    15    1
@<TRIPOS>MOLECULE
*****
 28 31 0 0 0
SMALL
GASTEIGER

@<TRIPOS>ATOM
      1 C         143.6273  141.1939  158.0640 C.3     1  UNL1        0.0721
      2 C         143.6131  141.4584  159.5405 C.3     1  UNL1        0.0191
      3 C         144.0339  140.3117  160.4111 C.3     1  UNL1        0.0061
      4 C         144.1255  140.2581  161.9074 C.3     1  UNL1        0.0258
      5 C         143.8188  141.3378  162.9025 C.ar    1  UNL1       -0.0278
      6 C         144.0435  140.8668  164.3088 C.ar    1  UNL1       -0.0260
      7 C         144.5174  139.4668  164.5642 C.3     1  UNL1        0.0307
      8 C         143.7941  141.7959  165.4597 C.ar    1  UNL1       -0.0046
      9 C         143.3202  143.1960  165.2043 C.ar    1  UNL1       -0.0006
     10 C         143.0956  143.6670  163.7980 C.ar    1  UNL1       -0.0023
     11 C         143.3449  142.7379  162.6471 C.ar    1  UNL1       -0.0000
     12 C         143.0605  143.4040  161.3335 C.3     1  UNL1        0.1324
     13 O         142.5953  144.8278  161.4131 O.3     1  UNL1       -0.3801
     14 C         143.1799  142.8346  159.9509 C.3     1  UNL1        0.0352
     15 H         142.5509  145.1020  162.3425 H       1  UNL1        0.2108
     16 C         147.3595  141.9747  155.6742 C.3     1  UNL1        0.0248
     17 C         147.0986  142.7492  156.9320 C.3     1  UNL1        0.0217
     18 C         145.8545  142.4889  157.7286 C.3     1  UNL1        0.0724
     19 N         144.8714  141.4542  157.2674 N.3     1  UNL1       -0.2727
     20 C         145.1323  140.6797  156.0096 C.3     1  UNL1        0.0724
     21 C         146.3763  140.9399  155.2130 C.3     1  UNL1        0.0217
     22 C         147.3096  143.9510  153.4177 C.3     1  UNL1        0.0307
     23 C         148.5786  143.2231  153.7493 C.ar    1  UNL1       -0.0258
     24 C         149.8226  143.4834  152.9526 C.ar    1  UNL1       -0.0046
     25 C         151.0915  142.7555  153.2842 C.ar    1  UNL1       -0.0003
     26 C         151.1164  141.7673  154.4124 C.ar    1  UNL1       -0.0003
     27 C         149.8725  141.5070  155.2091 C.ar    1  UNL1       -0.0046
     28 C         148.6036  142.2349  154.8775 C.ar    1  UNL1       -0.0264
@<TRIPOS>BOND
     1    22    23    1
     2    23    24   ar
     3    24    25   ar
     4    25    26   ar
     5    26    27   ar
     6    27    28   ar
     7    28    16    1
     8    16    17    1
     9    17    18    1
    10    18    19    1
    11    19     1    1
    12     2     1    1
    13     2     3    1
    14     3     4    1
    15     4     5    1
    16     5     6   ar
    17     6     7    1
    18     6     8   ar
    19     8     9   ar
    20     9    10   ar
    21    10    11   ar
    22    11    12    1
    23    12    13    1
    24    12    14    1
    25    19    20    1
    26    20    21    1
    27    28    23   ar
    28    21    16    1
    29    14     2    1
    30    11     5   ar
    31    13    15    1
@<TRIPOS>MOLECULE
*****
 28 31 0 0 0
SMALL
GASTEIGER

@<TRIPOS>ATOM
      1 C         138.8063  137.9305  163.6781 C.3     1  UNL1        0.0721
      2 C         139.4356  138.4992  164.9153 C.3     1  UNL1        0.0191
      3 C         138.4928  138.8161  166.0382 C.3     1  UNL1        0.0061
      4 C         138.8062  139.3878  167.3891 C.3     1  UNL1        0.0258
      5 C         140.1395  139.7839  167.9508 C.ar    1  UNL1       -0.0278
      6 C         140.0098  140.3153  169.3475 C.ar    1  UNL1       -0.0260
      7 C         138.6604  140.3932  169.9980 C.3     1  UNL1        0.0307
      8 C         141.2294  140.7689  170.0936 C.ar    1  UNL1       -0.0046
      9 C         142.5787  140.6910  169.4430 C.ar    1  UNL1       -0.0006
     10 C         142.7084  140.1596  168.0463 C.ar    1  UNL1       -0.0023
     11 C         141.4888  139.7061  167.3002 C.ar    1  UNL1       -0.0000
     12 C         141.8380  139.2129  165.9273 C.3     1  UNL1        0.1324
     13 O         143.2936  139.2636  165.5684 O.3     1  UNL1       -0.3801
     14 C         140.9243  138.6758  164.8659 C.3     1  UNL1        0.0352
     15 H         143.7983  139.6231  166.3146 H       1  UNL1        0.2108
     16 C         138.4841  140.4432  159.9589 C.3     1  UNL1        0.0248
     17 C         139.2722  139.1672  159.9360 C.3     1  UNL1        0.0217
     18 C         139.3796  138.3296  161.1757 C.3     1  UNL1        0.0724
     19 N         138.6989  138.7680  162.4384 N.3     1  UNL1       -0.2727
     20 C         137.9107  140.0442  162.4613 C.3     1  UNL1        0.0724
     21 C         137.8034  140.8817  161.2216 C.3     1  UNL1        0.0217
     22 C         140.2688  142.8279  159.6006 C.3     1  UNL1        0.0307
     23 C         139.2690  142.4732  158.5400 C.ar    1  UNL1       -0.0258
     24 C         139.1617  143.3108  157.3003 C.ar    1  UNL1       -0.0046
     25 C         138.1620  142.9561  156.2398 C.ar    1  UNL1       -0.0003
     26 C         137.2697  141.7637  156.4190 C.ar    1  UNL1       -0.0003
     27 C         137.3770  140.9261  157.6587 C.ar    1  UNL1       -0.0046
     28 C         138.3767  141.2808  158.7192 C.ar    1  UNL1       -0.0264
@<TRIPOS>BOND
     1    22    23    1
     2    23    24   ar
     3    24    25   ar
     4    25    26   ar
     5    26    27   ar
     6    27    28   ar
     7    28    16    1
     8    16    17    1
     9    17    18    1
    10    18    19    1
    11    19     1    1
    12     2     1    1
    13     2     3    1
    14     3     4    1
    15     4     5    1
    16     5     6   ar
    17     6     7    1
    18     6     8   ar
    19     8     9   ar
    20     9    10   ar
    21    10    11   ar
    22    11    12    1
    23    12    13    1
    24    12    14    1
    25    19    20    1
    26    20    21    1
    27    28    23   ar
    28    21    16    1
    29    14     2    1
    30    11     5   ar
    31    13    15    1
@<TRIPOS>MOLECULE
*****
 28 31 0 0 0
SMALL
GASTEIGER

@<TRIPOS>ATOM
      1 C         140.6745  145.5370  162.1689 C.3     1  UNL1        0.0721
      2 C         140.2919  144.9281  160.8525 C.3     1  UNL1        0.0191
      3 C         139.5863  143.6065  160.9273 C.3     1  UNL1        0.0061
      4 C         139.0801  142.7518  159.8035 C.3     1  UNL1        0.0258
      5 C         139.1543  143.0073  158.3272 C.ar    1  UNL1       -0.0278
      6 C         138.5236  141.8932  157.5457 C.ar    1  UNL1       -0.0260
      7 C         137.9247  140.7196  158.2627 C.3     1  UNL1        0.0307
      8 C         138.4917  141.9527  156.0473 C.ar    1  UNL1       -0.0046
      9 C         139.0906  143.1262  155.3303 C.ar    1  UNL1       -0.0006
     10 C         139.7214  144.2404  156.1118 C.ar    1  UNL1       -0.0023
     11 C         139.7532  144.1809  157.6103 C.ar    1  UNL1       -0.0000
     12 C         140.4258  145.3887  158.1925 C.3     1  UNL1        0.1324
     13 O         140.9245  146.3974  157.2006 O.3     1  UNL1       -0.3801
     14 C         140.6655  145.7213  159.6354 C.3     1  UNL1        0.0352
     15 H         140.7233  146.0936  156.3016 H       1  UNL1        0.2108
     16 C         140.3251  143.1235  165.9508 C.3     1  UNL1        0.0248
     17 C         141.5920  143.0817  165.1487 C.3     1  UNL1        0.0217
     18 C         141.7085  143.8862  163.8881 C.3     1  UNL1        0.0724
     19 N         140.5580  144.7326  163.4295 N.3     1  UNL1       -0.2727
     20 C         139.2912  144.7744  164.2316 C.3     1  UNL1        0.0724
     21 C         139.1747  143.9699  165.4922 C.3     1  UNL1        0.0217
     22 C         139.4564  140.2549  165.8246 C.3     1  UNL1        0.0307
     23 C         139.7743  140.8847  167.1484 C.ar    1  UNL1       -0.0258
     24 C         139.6578  140.0802  168.4090 C.ar    1  UNL1       -0.0046
     25 C         139.9757  140.7100  169.7326 C.ar    1  UNL1       -0.0003
     26 C         140.4100  142.1443  169.7958 C.ar    1  UNL1       -0.0003
     27 C         140.5265  142.9489  168.5352 C.ar    1  UNL1       -0.0046
     28 C         140.2086  142.3190  167.2115 C.ar    1  UNL1       -0.0264
@<TRIPOS>BOND
     1    22    23    1
     2    23    24   ar
     3    24    25   ar
     4    25    26   ar
     5    26    27   ar
     6    27    28   ar
     7    28    16    1
     8    16    17    1
     9    17    18    1
    10    18    19    1
    11    19     1    1
    12     2     1    1
    13     2     3    1
    14     3     4    1
    15     4     5    1
    16     5     6   ar
    17     6     7    1
    18     6     8   ar
    19     8     9   ar
    20     9    10   ar
    21    10    11   ar
    22    11    12    1
    23    12    13    1
    24    12    14    1
    25    19    20    1
    26    20    21    1
    27    28    23   ar
    28    21    16    1
    29    14     2    1
    30    11     5   ar
    31    13    15    1
@<TRIPOS>MOLECULE
*****
 28 31 0 0 0
SMALL
GASTEIGER

@<TRIPOS>ATOM
      1 C         138.5018  138.6495  163.6751 C.3     1  UNL1        0.0721
      2 C         138.5723  139.2624  162.3079 C.3     1  UNL1        0.0191
      3 C         139.0648  138.3606  161.2150 C.3     1  UNL1        0.0061
      4 C         139.2476  138.6698  159.7587 C.3     1  UNL1        0.0258
      5 C         138.9832  139.9571  159.0354 C.ar    1  UNL1       -0.0278
      6 C         139.3006  139.8398  157.5741 C.ar    1  UNL1       -0.0260
      7 C         139.8132  138.5438  157.0196 C.3     1  UNL1        0.0307
      8 C         139.1054  141.0186  156.6673 C.ar    1  UNL1       -0.0046
      9 C         138.5928  142.3147  157.2219 C.ar    1  UNL1       -0.0006
     10 C         138.2754  142.4319  158.6832 C.ar    1  UNL1       -0.0023
     11 C         138.4706  141.2531  159.5899 C.ar    1  UNL1       -0.0000
     12 C         138.0959  141.5820  161.0047 C.3     1  UNL1        0.1324
     13 O         137.6118  142.9819  161.2410 O.3     1  UNL1       -0.3801
     14 C         138.1411  140.6961  162.2143 C.3     1  UNL1        0.0352
     15 H         137.6190  143.4722  160.4041 H       1  UNL1        0.2108
     16 C         140.4938  140.6852  167.1590 C.3     1  UNL1        0.0248
     17 C         141.0973  140.7812  165.7891 C.3     1  UNL1        0.0217
     18 C         140.4333  140.1027  164.6278 C.3     1  UNL1        0.0724
     19 N         139.1658  139.3281  164.8364 N.3     1  UNL1       -0.2727
     20 C         138.5623  139.2321  166.2063 C.3     1  UNL1        0.0724
     21 C         139.2263  139.9106  167.3676 C.3     1  UNL1        0.0217
     22 C         142.6879  139.2911  168.6565 C.3     1  UNL1        0.0307
     23 C         142.2549  140.6667  169.0691 C.ar    1  UNL1       -0.0258
     24 C         142.9189  141.3452  170.2304 C.ar    1  UNL1       -0.0046
     25 C         142.4859  142.7208  170.6430 C.ar    1  UNL1       -0.0003
     26 C         141.3889  143.4178  169.8942 C.ar    1  UNL1       -0.0003
     27 C         140.7248  142.7393  168.7329 C.ar    1  UNL1       -0.0046
     28 C         141.1579  141.3638  168.3204 C.ar    1  UNL1       -0.0264
@<TRIPOS>BOND
     1    22    23    1
     2    23    24   ar
     3    24    25   ar
     4    25    26   ar
     5    26    27   ar
     6    27    28   ar
     7    28    16    1
     8    16    17    1
     9    17    18    1
    10    18    19    1
    11    19     1    1
    12     2     1    1
    13     2     3    1
    14     3     4    1
    15     4     5    1
    16     5     6   ar
    17     6     7    1
    18     6     8   ar
    19     8     9   ar
    20     9    10   ar
    21    10    11   ar
    22    11    12    1
    23    12    13    1
    24    12    14    1
    25    19    20    1
    26    20    21    1
    27    28    23   ar
    28    21    16    1
    29    14     2    1
    30    11     5   ar
    31    13    15    1
@<TRIPOS>MOLECULE
*****
 28 31 0 0 0
SMALL
GASTEIGER

@<TRIPOS>ATOM
      1 C         141.6987  139.3704  158.3487 C.3     1  UNL1        0.0721
      2 C         141.9984  139.2128  159.8100 C.3     1  UNL1        0.0191
      3 C         143.2235  139.9240  160.3034 C.3     1  UNL1        0.0061
      4 C         143.7861  139.9629  161.6934 C.3     1  UNL1        0.0258
      5 C         143.2627  139.3002  162.9331 C.ar    1  UNL1       -0.0278
      6 C         144.1299  139.5964  164.1206 C.ar    1  UNL1       -0.0260
      7 C         145.3453  140.4616  163.9646 C.3     1  UNL1        0.0307
      8 C         143.7818  139.0273  165.4641 C.ar    1  UNL1       -0.0046
      9 C         142.5665  138.1621  165.6201 C.ar    1  UNL1       -0.0006
     10 C         141.6992  137.8660  164.4326 C.ar    1  UNL1       -0.0023
     11 C         142.0473  138.4350  163.0891 C.ar    1  UNL1       -0.0000
     12 C         141.0553  138.0188  162.0439 C.3     1  UNL1        0.1324
     13 O         139.9371  137.1402  162.5211 O.3     1  UNL1       -0.3801
     14 C         141.0334  138.3649  160.5845 C.3     1  UNL1        0.0352
     15 H         140.0391  136.9745  163.4714 H       1  UNL1        0.2108
     16 C         141.5601  135.7518  155.6773 C.3     1  UNL1        0.0248
     17 C         140.3304  136.5885  155.8710 C.3     1  UNL1        0.0217
     18 C         140.3765  137.7948  156.7615 C.3     1  UNL1        0.0724
     19 N         141.6525  138.1642  157.4582 N.3     1  UNL1       -0.2727
     20 C         142.8823  137.3274  157.2645 C.3     1  UNL1        0.0724
     21 C         142.8361  136.1212  156.3740 C.3     1  UNL1        0.0217
     22 C         141.8380  136.0686  152.7070 C.3     1  UNL1        0.0307
     23 C         141.6529  134.7039  153.3017 C.ar    1  UNL1       -0.0258
     24 C         141.6068  133.4978  152.4112 C.ar    1  UNL1       -0.0046
     25 C         141.4217  132.1332  153.0058 C.ar    1  UNL1       -0.0003
     26 C         141.2827  131.9748  154.4909 C.ar    1  UNL1       -0.0003
     27 C         141.3289  133.1810  155.3814 C.ar    1  UNL1       -0.0046
     28 C         141.5140  134.5455  154.7868 C.ar    1  UNL1       -0.0264
@<TRIPOS>BOND
     1    22    23    1
     2    23    24   ar
     3    24    25   ar
     4    25    26   ar
     5    26    27   ar
     6    27    28   ar
     7    28    16    1
     8    16    17    1
     9    17    18    1
    10    18    19    1
    11    19     1    1
    12     2     1    1
    13     2     3    1
    14     3     4    1
    15     4     5    1
    16     5     6   ar
    17     6     7    1
    18     6     8   ar
    19     8     9   ar
    20     9    10   ar
    21    10    11   ar
    22    11    12    1
    23    12    13    1
    24    12    14    1
    25    19    20    1
    26    20    21    1
    27    28    23   ar
    28    21    16    1
    29    14     2    1
    30    11     5   ar
    31    13    15    1
@<TRIPOS>MOLECULE
*****
 28 31 0 0 0
SMALL
GASTEIGER

@<TRIPOS>ATOM
      1 C         139.3643  137.7861  163.4361 C.3     1  UNL1        0.0721
      2 C         139.5512  138.5437  164.7171 C.3     1  UNL1        0.0191
      3 C         140.7407  139.4563  164.7658 C.3     1  UNL1        0.0061
      4 C         141.1966  140.3391  165.8896 C.3     1  UNL1        0.0258
      5 C         140.5759  140.5273  167.2421 C.ar    1  UNL1       -0.0278
      6 C         141.3529  141.5075  168.0701 C.ar    1  UNL1       -0.0260
      7 C         142.5830  142.1556  167.5073 C.3     1  UNL1        0.0307
      8 C         140.8997  141.8395  169.4609 C.ar    1  UNL1       -0.0046
      9 C         139.6696  141.1913  170.0237 C.ar    1  UNL1       -0.0006
     10 C         138.8927  140.2112  169.1957 C.ar    1  UNL1       -0.0023
     11 C         139.3458  139.8792  167.8049 C.ar    1  UNL1       -0.0000
     12 C         138.4327  138.8828  167.1542 C.3     1  UNL1        0.1324
     13 O         137.2750  138.4195  167.9880 O.3     1  UNL1       -0.3801
     14 C         138.5240  138.2884  165.7800 C.3     1  UNL1        0.0352
     15 H         137.3035  138.8578  168.8528 H       1  UNL1        0.2108
     16 C         141.8527  138.8141  159.8304 C.3     1  UNL1        0.0248
     17 C         142.4206  137.9402  160.9092 C.3     1  UNL1        0.0217
     18 C         141.5911  137.5976  162.1111 C.3     1  UNL1        0.0724
     19 N         140.1937  138.1287  162.2342 N.3     1  UNL1       -0.2727
     20 C         139.6258  139.0026  161.1553 C.3     1  UNL1        0.0724
     21 C         140.4553  139.3452  159.9534 C.3     1  UNL1        0.0217
     22 C         143.7213  141.1594  159.9167 C.3     1  UNL1        0.0307
     23 C         143.6165  140.3294  158.6716 C.ar    1  UNL1       -0.0258
     24 C         144.4459  140.6721  157.4697 C.ar    1  UNL1       -0.0046
     25 C         144.3410  139.8422  156.2247 C.ar    1  UNL1       -0.0003
     26 C         143.4067  138.6695  156.1815 C.ar    1  UNL1       -0.0003
     27 C         142.5773  138.3268  157.3834 C.ar    1  UNL1       -0.0046
     28 C         142.6821  139.1567  158.6284 C.ar    1  UNL1       -0.0264
@<TRIPOS>BOND
     1    22    23    1
     2    23    24   ar
     3    24    25   ar
     4    25    26   ar
     5    26    27   ar
     6    27    28   ar
     7    28    16    1
     8    16    17    1
     9    17    18    1
    10    18    19    1
    11    19     1    1
    12     2     1    1
    13     2     3    1
    14     3     4    1
    15     4     5    1
    16     5     6   ar
    17     6     7    1
    18     6     8   ar
    19     8     9   ar
    20     9    10   ar
    21    10    11   ar
    22    11    12    1
    23    12    13    1
    24    12    14    1
    25    19    20    1
    26    20    21    1
    27    28    23   ar
    28    21    16    1
    29    14     2    1
    30    11     5   ar
    31    13    15    1
