@<TRIPOS>MOLECULE
*****
 36 39 0 0 0
SMALL
GASTEIGER

@<TRIPOS>ATOM
      1 C         139.6879  139.3477  165.5187 C.ar    1  UNL1        0.0154
      2 C         139.2744  137.9293  165.2595 C.ar    1  UNL1        0.0985
      3 N         138.9295  137.4912  163.8670 N.ar    1  UNL1       -0.2423
      4 C         138.9980  138.4715  162.7337 C.ar    1  UNL1        0.0985
      5 C         139.4114  139.8899  162.9929 C.ar    1  UNL1        0.0152
      6 C         139.7563  140.3280  164.3855 C.ar    1  UNL1       -0.0188
      7 C         140.1698  141.7464  164.6447 C.3     1  UNL1        0.0311
      8 C         141.7937  140.5787  168.6493 C.ar    1  UNL1        0.1452
      9 C         141.4487  140.1406  167.2568 C.ar    1  UNL1        0.0372
     10 C         140.0328  139.7857  166.9113 C.ar    1  UNL1        0.0064
     11 C         138.9619  139.8689  167.9583 C.ar    1  UNL1        0.0300
     12 C         139.3069  140.3069  169.3508 C.ar    1  UNL1        0.1474
     13 F         138.2360  140.3901  170.3978 F       1  UNL1       -0.2039
     14 C         140.7228  140.6618  169.6962 C.ar    1  UNL1        0.1144
     15 C         141.0677  141.0999  171.0888 C.2     1  UNL1        0.2479
     16 N         142.2244  140.4714  171.8079 N.am    1  UNL1       -0.3252
     17 O         140.2560  142.1664  171.7623 O.2     1  UNL1       -0.2702
     18 H         142.7572  139.7714  171.3658 H       1  UNL1        0.1453
     19 H         142.4509  140.7589  172.7218 H       1  UNL1        0.1453
     20 C         143.6389  142.3706  169.0153 C.3     1  UNL1        0.2525
     21 O         143.2096  140.9335  168.9948 O.3     1  UNL1       -0.4712
     22 C         139.4799  140.8703  161.8597 C.ar    1  UNL1        0.0013
     23 C         140.7418  141.0055  161.0603 C.ar    1  UNL1        0.0013
     24 C         140.8103  141.9858  159.9270 C.ar    1  UNL1        0.0145
     25 C         139.6169  142.8309  159.5932 C.ar    1  UNL1        0.0479
     26 C         138.3549  142.6957  160.3927 C.ar    1  UNL1        0.0145
     27 C         138.2864  141.7154  161.5259 C.ar    1  UNL1        0.0013
     28 N         139.6853  143.8113  158.4600 N.pl3   1  UNL1       -0.3046
     29 C         140.2762  145.1722  158.6804 C.3     1  UNL1        0.1081
     30 C         140.3447  146.1526  157.5471 C.3     1  UNL1        0.0938
     31 N         139.8223  145.7720  156.1935 N.3     1  UNL1       -0.2711
     32 C         139.2315  144.4109  155.9731 C.3     1  UNL1        0.0938
     33 C         139.1630  143.4306  157.1064 C.3     1  UNL1        0.1081
     34 C         139.8908  146.7523  155.0603 C.3     1  UNL1        0.0577
     35 C         139.1227  148.0387  155.1339 C.3     1  UNL1        0.0173
     36 C         140.7273  146.4463  153.8534 C.3     1  UNL1        0.0173
@<TRIPOS>BOND
     1    20    21    1
     2    21     8    1
     3     8     9   ar
     4     9    10   ar
     5    10     1    1
     6     1     2   ar
     7     2     3   ar
     8     3     4   ar
     9     4     5   ar
    10     5    22    1
    11    22    23   ar
    12    23    24   ar
    13    24    25   ar
    14    25    28    1
    15    28    29    1
    16    29    30    1
    17    30    31    1
    18    31    34    1
    19    34    35    1
    20    34    36    1
    21    31    32    1
    22    32    33    1
    23    25    26   ar
    24    26    27   ar
    25     5     6   ar
    26     6     7    1
    27    10    11   ar
    28    11    12   ar
    29    12    13    1
    30    12    14   ar
    31    14    15    1
    32    15    16   am
    33    15    17    2
    34    14     8   ar
    35     6     1   ar
    36    27    22   ar
    37    33    28    1
    38    16    18    1
    39    16    19    1
@<TRIPOS>MOLECULE
*****
 36 39 0 0 0
SMALL
GASTEIGER

@<TRIPOS>ATOM
      1 C         139.7144  139.3883  165.5786 C.ar    1  UNL1        0.0154
      2 C         139.2454  137.9832  165.3424 C.ar    1  UNL1        0.0985
      3 N         138.8450  137.5479  163.9640 N.ar    1  UNL1       -0.2423
      4 C         138.9136  138.5177  162.8216 C.ar    1  UNL1        0.0985
      5 C         139.3826  139.9227  163.0578 C.ar    1  UNL1        0.0152
      6 C         139.7830  140.3580  164.4364 C.ar    1  UNL1       -0.0188
      7 C         140.2519  141.7631  164.6726 C.3     1  UNL1        0.0311
      8 C         139.4915  140.3171  169.4306 C.ar    1  UNL1        0.1452
      9 C         139.0912  139.8819  168.0521 C.ar    1  UNL1        0.0372
     10 C         140.1148  139.8235  166.9572 C.ar    1  UNL1        0.0064
     11 C         141.5386  140.2005  167.2407 C.ar    1  UNL1        0.0300
     12 C         141.9390  140.6357  168.6192 C.ar    1  UNL1        0.1474
     13 F         143.3629  141.0127  168.9027 F       1  UNL1       -0.2039
     14 C         140.9154  140.6940  169.7141 C.ar    1  UNL1        0.1144
     15 C         141.3158  141.1293  171.0926 C.2     1  UNL1        0.2479
     16 N         142.4651  140.4600  171.7863 N.am    1  UNL1       -0.3252
     17 O         140.5669  142.2339  171.7775 O.2     1  UNL1       -0.2702
     18 H         142.9566  139.7350  171.3367 H       1  UNL1        0.1453
     19 H         142.7279  140.7457  172.6910 H       1  UNL1        0.1453
     20 C         137.3249  139.4043  170.5362 C.3     1  UNL1        0.2525
     21 O         138.4680  140.3755  170.5255 O.3     1  UNL1       -0.4712
     22 C         139.4512  140.8925  161.9156 C.ar    1  UNL1        0.0013
     23 C         140.6845  140.9632  161.0648 C.ar    1  UNL1        0.0013
     24 C         140.7531  141.9330  159.9225 C.ar    1  UNL1        0.0145
     25 C         139.5884  142.8321  159.6310 C.ar    1  UNL1        0.0479
     26 C         138.3550  142.7614  160.4819 C.ar    1  UNL1        0.0145
     27 C         138.2864  141.7917  161.6241 C.ar    1  UNL1        0.0013
     28 N         139.6570  143.8019  158.4888 N.pl3   1  UNL1       -0.3046
     29 C         140.2409  145.1675  158.6985 C.3     1  UNL1        0.1081
     30 C         140.3096  146.1374  157.5562 C.3     1  UNL1        0.0938
     31 N         139.7942  145.7416  156.2043 N.3     1  UNL1       -0.2711
     32 C         139.2102  144.3758  155.9946 C.3     1  UNL1        0.0938
     33 C         139.1416  143.4061  157.1368 C.3     1  UNL1        0.1081
     34 C         139.8628  146.7113  155.0620 C.3     1  UNL1        0.0577
     35 C         140.6719  146.3789  153.8434 C.3     1  UNL1        0.0173
     36 C         139.1224  148.0136  155.1383 C.3     1  UNL1        0.0173
@<TRIPOS>BOND
     1    20    21    1
     2    21     8    1
     3     8     9   ar
     4     9    10   ar
     5    10     1    1
     6     1     2   ar
     7     2     3   ar
     8     3     4   ar
     9     4     5   ar
    10     5    22    1
    11    22    23   ar
    12    23    24   ar
    13    24    25   ar
    14    25    28    1
    15    28    29    1
    16    29    30    1
    17    30    31    1
    18    31    34    1
    19    34    35    1
    20    34    36    1
    21    31    32    1
    22    32    33    1
    23    25    26   ar
    24    26    27   ar
    25     5     6   ar
    26     6     7    1
    27    10    11   ar
    28    11    12   ar
    29    12    13    1
    30    12    14   ar
    31    14    15    1
    32    15    16   am
    33    15    17    2
    34    14     8   ar
    35     6     1   ar
    36    27    22   ar
    37    33    28    1
    38    16    18    1
    39    16    19    1
@<TRIPOS>MOLECULE
*****
 36 39 0 0 0
SMALL
GASTEIGER

@<TRIPOS>ATOM
      1 C         140.7501  142.2818  165.1871 C.ar    1  UNL1        0.0154
      2 C         140.1476  143.6343  164.9467 C.ar    1  UNL1        0.0985
      3 N         139.7545  144.0443  163.5584 N.ar    1  UNL1       -0.2423
      4 C         139.9639  143.1017  162.4104 C.ar    1  UNL1        0.0985
      5 C         140.5663  141.7492  162.6508 C.ar    1  UNL1        0.0152
      6 C         140.9594  141.3393  164.0392 C.ar    1  UNL1       -0.0188
      7 C         141.5619  139.9868  164.2796 C.3     1  UNL1        0.0311
      8 C         140.6297  140.5802  168.7704 C.ar    1  UNL1        0.1452
      9 C         140.2367  140.9901  167.3821 C.ar    1  UNL1        0.0372
     10 C         141.1432  141.8719  166.5755 C.ar    1  UNL1        0.0064
     11 C         142.4427  142.3439  167.1572 C.ar    1  UNL1        0.0300
     12 C         142.8357  141.9340  168.5455 C.ar    1  UNL1        0.1474
     13 F         144.1353  142.4060  169.1273 F       1  UNL1       -0.2039
     14 C         141.9292  141.0521  169.3521 C.ar    1  UNL1        0.1144
     15 C         142.3223  140.6423  170.7405 C.2     1  UNL1        0.2479
     16 N         143.4444  139.6681  170.9455 N.am    1  UNL1       -0.3252
     17 O         141.5934  141.2065  171.9238 O.2     1  UNL1       -0.2702
     18 H         143.9228  139.2977  170.1688 H       1  UNL1        0.1453
     19 H         143.7024  139.3990  171.8567 H       1  UNL1        0.1453
     20 C         138.4679  140.2604  170.1755 C.3     1  UNL1        0.2525
     21 O         139.7232  139.6983  169.5770 O.3     1  UNL1       -0.4712
     22 C         140.7757  140.8066  161.5030 C.ar    1  UNL1        0.0013
     23 C         142.0413  140.8715  160.7005 C.ar    1  UNL1        0.0013
     24 C         142.2507  139.9289  159.5525 C.ar    1  UNL1        0.0145
     25 C         141.1945  138.9214  159.2071 C.ar    1  UNL1        0.0479
     26 C         139.9288  138.8565  160.0097 C.ar    1  UNL1        0.0145
     27 C         139.7195  139.7990  161.1576 C.ar    1  UNL1        0.0013
     28 N         141.4038  137.9788  158.0593 N.pl3   1  UNL1       -0.3046
     29 C         140.3008  137.7451  157.0700 C.3     1  UNL1        0.1081
     30 C         140.5102  136.8025  155.9220 C.3     1  UNL1        0.0938
     31 N         141.8225  136.0936  155.7634 N.3     1  UNL1       -0.2711
     32 C         142.9256  136.3273  156.7528 C.3     1  UNL1        0.0938
     33 C         142.7162  137.2699  157.9007 C.3     1  UNL1        0.1081
     34 C         142.0319  135.1510  154.6156 C.3     1  UNL1        0.0577
     35 C         142.4111  133.7234  154.8769 C.3     1  UNL1        0.0173
     36 C         141.8620  135.6360  153.2063 C.3     1  UNL1        0.0173
@<TRIPOS>BOND
     1    20    21    1
     2    21     8    1
     3     8     9   ar
     4     9    10   ar
     5    10     1    1
     6     1     2   ar
     7     2     3   ar
     8     3     4   ar
     9     4     5   ar
    10     5    22    1
    11    22    23   ar
    12    23    24   ar
    13    24    25   ar
    14    25    28    1
    15    28    29    1
    16    29    30    1
    17    30    31    1
    18    31    34    1
    19    34    35    1
    20    34    36    1
    21    31    32    1
    22    32    33    1
    23    25    26   ar
    24    26    27   ar
    25     5     6   ar
    26     6     7    1
    27    10    11   ar
    28    11    12   ar
    29    12    13    1
    30    12    14   ar
    31    14    15    1
    32    15    16   am
    33    15    17    2
    34    14     8   ar
    35     6     1   ar
    36    27    22   ar
    37    33    28    1
    38    16    18    1
    39    16    19    1
@<TRIPOS>MOLECULE
*****
 36 39 0 0 0
SMALL
GASTEIGER

@<TRIPOS>ATOM
      1 C         140.3321  140.7187  165.1672 C.ar    1  UNL1        0.0154
      2 C         138.9769  140.1067  164.9702 C.ar    1  UNL1        0.0985
      3 N         138.5439  139.6676  163.6028 N.ar    1  UNL1       -0.2423
      4 C         139.4661  139.8405  162.4325 C.ar    1  UNL1        0.0985
      5 C         140.8213  140.4525  162.6295 C.ar    1  UNL1        0.0152
      6 C         141.2543  140.8917  163.9969 C.ar    1  UNL1       -0.0188
      7 C         142.6095  141.5037  164.1940 C.3     1  UNL1        0.0311
      8 C         142.1551  140.7545  168.6922 C.ar    1  UNL1        0.1452
      9 C         141.7221  140.3154  167.3249 C.ar    1  UNL1        0.0372
     10 C         140.7651  141.1579  166.5346 C.ar    1  UNL1        0.0064
     11 C         140.2412  142.4394  167.1117 C.ar    1  UNL1        0.0300
     12 C         140.6742  142.8785  168.4791 C.ar    1  UNL1        0.1474
     13 F         140.1503  144.1601  169.0562 F       1  UNL1       -0.2039
     14 C         141.6311  142.0360  169.2693 C.ar    1  UNL1        0.1144
     15 C         142.0641  142.4751  170.6367 C.2     1  UNL1        0.2479
     16 N         143.2364  143.3980  170.7919 N.am    1  UNL1       -0.3252
     17 O         141.3248  141.9914  171.8489 O.2     1  UNL1       -0.2702
     18 H         143.7217  143.7155  169.9963 H       1  UNL1        0.1453
     19 H         143.5206  143.6862  171.6893 H       1  UNL1        0.1453
     20 C         142.6290  138.6646  170.1612 C.3     1  UNL1        0.2525
     21 O         143.1120  139.9120  169.4825 O.3     1  UNL1       -0.4712
     22 C         141.7435  140.6254  161.4592 C.ar    1  UNL1        0.0013
     23 C         141.6973  141.8862  160.6478 C.ar    1  UNL1        0.0013
     24 C         142.6195  142.0591  159.4775 C.ar    1  UNL1        0.0145
     25 C         143.5880  140.9713  159.1186 C.ar    1  UNL1        0.0479
     26 C         143.6342  139.7106  159.9300 C.ar    1  UNL1        0.0145
     27 C         142.7120  139.5376  161.1003 C.ar    1  UNL1        0.0013
     28 N         144.5102  141.1443  157.9483 N.pl3   1  UNL1       -0.3046
     29 C         144.4734  140.1643  156.8133 C.3     1  UNL1        0.1081
     30 C         145.3956  140.3371  155.6429 C.3     1  UNL1        0.0938
     31 N         146.3546  141.4901  155.6076 N.3     1  UNL1       -0.2711
     32 C         146.3913  142.4701  156.7427 C.3     1  UNL1        0.0938
     33 C         145.4691  142.2972  157.9130 C.3     1  UNL1        0.1081
     34 C         147.2768  141.6630  154.4374 C.3     1  UNL1        0.0577
     35 C         146.7724  141.4293  153.0441 C.3     1  UNL1        0.0173
     36 C         148.7033  142.0695  154.6602 C.3     1  UNL1        0.0173
@<TRIPOS>BOND
     1    20    21    1
     2    21     8    1
     3     8     9   ar
     4     9    10   ar
     5    10     1    1
     6     1     2   ar
     7     2     3   ar
     8     3     4   ar
     9     4     5   ar
    10     5    22    1
    11    22    23   ar
    12    23    24   ar
    13    24    25   ar
    14    25    28    1
    15    28    29    1
    16    29    30    1
    17    30    31    1
    18    31    34    1
    19    34    35    1
    20    34    36    1
    21    31    32    1
    22    32    33    1
    23    25    26   ar
    24    26    27   ar
    25     5     6   ar
    26     6     7    1
    27    10    11   ar
    28    11    12   ar
    29    12    13    1
    30    12    14   ar
    31    14    15    1
    32    15    16   am
    33    15    17    2
    34    14     8   ar
    35     6     1   ar
    36    27    22   ar
    37    33    28    1
    38    16    18    1
    39    16    19    1
@<TRIPOS>MOLECULE
*****
 36 39 0 0 0
SMALL
GASTEIGER

@<TRIPOS>ATOM
      1 C         143.1358  141.7329  165.6114 C.ar    1  UNL1        0.0154
      2 C         144.1577  142.8261  165.5079 C.ar    1  UNL1        0.0985
      3 N         144.8187  143.1129  164.1923 N.ar    1  UNL1       -0.2423
      4 C         144.4578  142.3064  162.9801 C.ar    1  UNL1        0.0985
      5 C         143.4359  141.2132  163.0835 C.ar    1  UNL1        0.0152
      6 C         142.7749  140.9265  164.3992 C.ar    1  UNL1       -0.0188
      7 C         141.7531  139.8332  164.5026 C.3     1  UNL1        0.0311
      8 C         140.8285  142.1348  168.8152 C.ar    1  UNL1        0.1452
      9 C         141.4895  142.4215  167.4996 C.ar    1  UNL1        0.0372
     10 C         142.4748  141.4462  166.9270 C.ar    1  UNL1        0.0064
     11 C         142.7992  140.1842  167.6701 C.ar    1  UNL1        0.0300
     12 C         142.1383  139.8975  168.9857 C.ar    1  UNL1        0.1474
     13 F         142.4626  138.6355  169.7288 F       1  UNL1       -0.2039
     14 C         141.1529  140.8728  169.5583 C.ar    1  UNL1        0.1144
     15 C         140.4919  140.5861  170.8740 C.2     1  UNL1        0.2479
     16 N         139.5887  139.3970  171.0161 N.am    1  UNL1       -0.3252
     17 O         140.7342  141.4884  172.0474 O.2     1  UNL1       -0.2702
     18 H         139.4297  138.8047  170.2459 H       1  UNL1        0.1453
     19 H         139.1548  139.2088  171.8796 H       1  UNL1        0.1453
     20 C         140.3292  144.3574  170.0644 C.3     1  UNL1        0.2525
     21 O         139.8431  143.1101  169.3878 O.3     1  UNL1       -0.4712
     22 C         143.0750  140.4067  161.8714 C.ar    1  UNL1        0.0013
     23 C         143.8446  139.1620  161.5424 C.ar    1  UNL1        0.0013
     24 C         143.4837  138.3555  160.3302 C.ar    1  UNL1        0.0145
     25 C         142.3533  138.7938  159.4470 C.ar    1  UNL1        0.0479
     26 C         141.5837  140.0386  159.7761 C.ar    1  UNL1        0.0145
     27 C         141.9446  140.8451  160.9882 C.ar    1  UNL1        0.0013
     28 N         141.9924  137.9873  158.2349 N.pl3   1  UNL1       -0.3046
     29 C         142.8678  136.8480  157.8042 C.3     1  UNL1        0.1081
     30 C         142.5070  136.0415  156.5920 C.3     1  UNL1        0.0938
     31 N         141.2706  136.3744  155.8105 N.3     1  UNL1       -0.2711
     32 C         140.3952  137.5137  156.2412 C.3     1  UNL1        0.0938
     33 C         140.7561  138.3202  157.4534 C.3     1  UNL1        0.1081
     34 C         140.9098  135.5679  154.5983 C.3     1  UNL1        0.0577
     35 C         140.1103  136.1919  153.4931 C.3     1  UNL1        0.0173
     36 C         141.3483  134.1374  154.4914 C.3     1  UNL1        0.0173
@<TRIPOS>BOND
     1    20    21    1
     2    21     8    1
     3     8     9   ar
     4     9    10   ar
     5    10     1    1
     6     1     2   ar
     7     2     3   ar
     8     3     4   ar
     9     4     5   ar
    10     5    22    1
    11    22    23   ar
    12    23    24   ar
    13    24    25   ar
    14    25    28    1
    15    28    29    1
    16    29    30    1
    17    30    31    1
    18    31    34    1
    19    34    35    1
    20    34    36    1
    21    31    32    1
    22    32    33    1
    23    25    26   ar
    24    26    27   ar
    25     5     6   ar
    26     6     7    1
    27    10    11   ar
    28    11    12   ar
    29    12    13    1
    30    12    14   ar
    31    14    15    1
    32    15    16   am
    33    15    17    2
    34    14     8   ar
    35     6     1   ar
    36    27    22   ar
    37    33    28    1
    38    16    18    1
    39    16    19    1
@<TRIPOS>MOLECULE
*****
 36 39 0 0 0
SMALL
GASTEIGER

@<TRIPOS>ATOM
      1 C         142.7344  140.1579  165.1781 C.ar    1  UNL1        0.0154
      2 C         143.8968  139.2202  165.0379 C.ar    1  UNL1        0.0985
      3 N         144.6621  139.1619  163.7492 N.ar    1  UNL1       -0.2423
      4 C         144.2651  140.0412  162.6006 C.ar    1  UNL1        0.0985
      5 C         143.1028  140.9789  162.7408 C.ar    1  UNL1        0.0152
      6 C         142.3374  141.0373  164.0296 C.ar    1  UNL1       -0.0188
      7 C         141.1750  141.9749  164.1697 C.3     1  UNL1        0.0311
      8 C         139.8225  139.6947  167.8345 C.ar    1  UNL1        0.1452
      9 C         140.5879  139.6364  166.5458 C.ar    1  UNL1        0.0372
     10 C         141.9690  140.2163  166.4669 C.ar    1  UNL1        0.0064
     11 C         142.5848  140.8544  167.6766 C.ar    1  UNL1        0.0300
     12 C         141.8194  140.9127  168.9653 C.ar    1  UNL1        0.1474
     13 F         142.4352  141.5510  170.1751 F       1  UNL1       -0.2039
     14 C         140.4383  140.3329  169.0442 C.ar    1  UNL1        0.1144
     15 C         139.6729  140.3912  170.3330 C.2     1  UNL1        0.2479
     16 N         139.9772  139.4154  171.4308 N.am    1  UNL1       -0.3252
     17 O         138.6033  141.4253  170.5239 O.2     1  UNL1       -0.2702
     18 H         140.6793  138.7367  171.3055 H       1  UNL1        0.1453
     19 H         139.4749  139.4536  172.2767 H       1  UNL1        0.1453
     20 C         137.7798  138.5823  166.6771 C.3     1  UNL1        0.2525
     21 O         138.4414  139.1148  167.9134 O.3     1  UNL1       -0.4712
     22 C         142.7058  141.8583  161.5923 C.ar    1  UNL1        0.0013
     23 C         142.9477  143.3370  161.6614 C.ar    1  UNL1        0.0013
     24 C         142.5507  144.2164  160.5128 C.ar    1  UNL1        0.0145
     25 C         141.9118  143.6170  159.2952 C.ar    1  UNL1        0.0479
     26 C         141.6699  142.1382  159.2262 C.ar    1  UNL1        0.0145
     27 C         142.0669  141.2589  160.3747 C.ar    1  UNL1        0.0013
     28 N         141.5148  144.4963  158.1467 N.pl3   1  UNL1       -0.3046
     29 C         140.4036  145.4902  158.3123 C.3     1  UNL1        0.1081
     30 C         140.0065  146.3696  157.1637 C.3     1  UNL1        0.0938
     31 N         140.7207  146.2551  155.8497 N.3     1  UNL1       -0.2711
     32 C         141.8320  145.2611  155.6841 C.3     1  UNL1        0.0938
     33 C         142.2290  144.3818  156.8326 C.3     1  UNL1        0.1081
     34 C         140.3237  147.1344  154.7011 C.3     1  UNL1        0.0577
     35 C         140.9142  146.9046  153.3415 C.3     1  UNL1        0.0173
     36 C         139.3362  148.2435  154.9122 C.3     1  UNL1        0.0173
@<TRIPOS>BOND
     1    20    21    1
     2    21     8    1
     3     8     9   ar
     4     9    10   ar
     5    10     1    1
     6     1     2   ar
     7     2     3   ar
     8     3     4   ar
     9     4     5   ar
    10     5    22    1
    11    22    23   ar
    12    23    24   ar
    13    24    25   ar
    14    25    28    1
    15    28    29    1
    16    29    30    1
    17    30    31    1
    18    31    34    1
    19    34    35    1
    20    34    36    1
    21    31    32    1
    22    32    33    1
    23    25    26   ar
    24    26    27   ar
    25     5     6   ar
    26     6     7    1
    27    10    11   ar
    28    11    12   ar
    29    12    13    1
    30    12    14   ar
    31    14    15    1
    32    15    16   am
    33    15    17    2
    34    14     8   ar
    35     6     1   ar
    36    27    22   ar
    37    33    28    1
    38    16    18    1
    39    16    19    1
@<TRIPOS>MOLECULE
*****
 36 39 0 0 0
SMALL
GASTEIGER

@<TRIPOS>ATOM
      1 C         139.1790  141.9002  163.7460 C.ar    1  UNL1        0.0154
      2 C         137.8677  142.4453  163.2630 C.ar    1  UNL1        0.0985
      3 N         137.7228  142.9009  161.8413 N.ar    1  UNL1       -0.2423
      4 C         138.8893  142.8114  160.9025 C.ar    1  UNL1        0.0985
      5 C         140.2007  142.2664  161.3855 C.ar    1  UNL1        0.0152
      6 C         140.3455  141.8107  162.8073 C.ar    1  UNL1       -0.0188
      7 C         141.6568  141.2656  163.2903 C.3     1  UNL1        0.0311
      8 C         138.7694  139.7456  167.0536 C.ar    1  UNL1        0.1452
      9 C         138.6246  140.2012  165.6319 C.ar    1  UNL1        0.0372
     10 C         139.3238  141.4445  165.1678 C.ar    1  UNL1        0.0064
     11 C         140.1678  142.2322  166.1255 C.ar    1  UNL1        0.0300
     12 C         140.3126  141.7765  167.5473 C.ar    1  UNL1        0.1474
     13 F         141.1566  142.5642  168.5051 F       1  UNL1       -0.2039
     14 C         139.6134  140.5332  168.0113 C.ar    1  UNL1        0.1144
     15 C         139.7582  140.0776  169.4331 C.2     1  UNL1        0.2479
     16 N         138.5644  140.0627  170.3412 N.am    1  UNL1       -0.3252
     17 O         141.0968  139.6369  169.9468 O.2     1  UNL1       -0.2702
     18 H         137.6859  140.3520  170.0040 H       1  UNL1        0.1453
     19 H         138.6595  139.7637  171.2744 H       1  UNL1        0.1453
     20 C         137.7926  137.3918  166.5483 C.3     1  UNL1        0.2525
     21 O         138.0702  138.5023  167.5176 O.3     1  UNL1       -0.4712
     22 C         141.3671  142.1769  160.4467 C.ar    1  UNL1        0.0013
     23 C         141.5194  140.9831  159.5514 C.ar    1  UNL1        0.0013
     24 C         142.6860  140.8936  158.6126 C.ar    1  UNL1        0.0145
     25 C         143.7001  141.9980  158.5692 C.ar    1  UNL1        0.0479
     26 C         143.5478  143.1918  159.4645 C.ar    1  UNL1        0.0145
     27 C         142.3813  143.2813  160.4032 C.ar    1  UNL1        0.0013
     28 N         144.8666  141.9085  157.6304 N.pl3   1  UNL1       -0.3046
     29 C         144.8478  140.9193  156.5030 C.3     1  UNL1        0.1081
     30 C         146.0143  140.8298  155.5642 C.3     1  UNL1        0.0938
     31 N         147.1996  141.7296  155.7528 N.3     1  UNL1       -0.2711
     32 C         147.2183  142.7188  156.8803 C.3     1  UNL1        0.0938
     33 C         146.0518  142.8083  157.8190 C.3     1  UNL1        0.1081
     34 C         148.3661  141.6401  154.8141 C.3     1  UNL1        0.0577
     35 C         149.7590  141.5213  155.3579 C.3     1  UNL1        0.0173
     36 C         148.1397  141.6695  153.3316 C.3     1  UNL1        0.0173
@<TRIPOS>BOND
     1    20    21    1
     2    21     8    1
     3     8     9   ar
     4     9    10   ar
     5    10     1    1
     6     1     2   ar
     7     2     3   ar
     8     3     4   ar
     9     4     5   ar
    10     5    22    1
    11    22    23   ar
    12    23    24   ar
    13    24    25   ar
    14    25    28    1
    15    28    29    1
    16    29    30    1
    17    30    31    1
    18    31    34    1
    19    34    35    1
    20    34    36    1
    21    31    32    1
    22    32    33    1
    23    25    26   ar
    24    26    27   ar
    25     5     6   ar
    26     6     7    1
    27    10    11   ar
    28    11    12   ar
    29    12    13    1
    30    12    14   ar
    31    14    15    1
    32    15    16   am
    33    15    17    2
    34    14     8   ar
    35     6     1   ar
    36    27    22   ar
    37    33    28    1
    38    16    18    1
    39    16    19    1
@<TRIPOS>MOLECULE
*****
 36 39 0 0 0
SMALL
GASTEIGER

@<TRIPOS>ATOM
      1 C         142.7172  141.6801  165.3673 C.ar    1  UNL1        0.0154
      2 C         144.0881  142.2631  165.1922 C.ar    1  UNL1        0.0985
      3 N         144.6188  142.5310  163.8150 N.ar    1  UNL1       -0.2423
      4 C         143.7786  142.2159  162.6130 C.ar    1  UNL1        0.0985
      5 C         142.4077  141.6329  162.7882 C.ar    1  UNL1        0.0152
      6 C         141.8770  141.3649  164.1654 C.ar    1  UNL1       -0.0188
      7 C         140.5061  140.7819  164.3405 C.3     1  UNL1        0.0311
      8 C         140.7496  142.1401  168.7831 C.ar    1  UNL1        0.1452
      9 C         141.2804  142.4079  167.4059 C.ar    1  UNL1        0.0372
     10 C         142.1865  141.4122  166.7445 C.ar    1  UNL1        0.0064
     11 C         142.5619  140.1486  167.4603 C.ar    1  UNL1        0.0300
     12 C         142.0312  139.8807  168.8374 C.ar    1  UNL1        0.1474
     13 F         142.4066  138.6171  169.5533 F       1  UNL1       -0.2039
     14 C         141.1251  140.8765  169.4988 C.ar    1  UNL1        0.1144
     15 C         140.5943  140.6086  170.8760 C.2     1  UNL1        0.2479
     16 N         139.7108  139.4215  171.1215 N.am    1  UNL1       -0.3252
     17 O         140.9472  141.5277  172.0077 O.2     1  UNL1       -0.2702
     18 H         139.4793  138.8182  170.3788 H       1  UNL1        0.1453
     19 H         139.3625  139.2456  172.0254 H       1  UNL1        0.1453
     20 C         140.4186  144.3665  170.0805 C.3     1  UNL1        0.2525
     21 O         139.8435  143.1358  169.4445 O.3     1  UNL1       -0.4712
     22 C         141.5675  141.3177  161.5862 C.ar    1  UNL1        0.0013
     23 C         141.5915  139.9394  160.9949 C.ar    1  UNL1        0.0013
     24 C         140.7513  139.6242  159.7929 C.ar    1  UNL1        0.0145
     25 C         139.8871  140.6874  159.1822 C.ar    1  UNL1        0.0479
     26 C         139.8632  142.0658  159.7736 C.ar    1  UNL1        0.0145
     27 C         140.7034  142.3809  160.9755 C.ar    1  UNL1        0.0013
     28 N         139.0470  140.3723  157.9803 N.pl3   1  UNL1       -0.3046
     29 C         139.5195  139.3598  156.9795 C.3     1  UNL1        0.1081
     30 C         138.6793  139.0446  155.7775 C.3     1  UNL1        0.0938
     31 N         137.3666  139.7419  155.5763 N.3     1  UNL1       -0.2711
     32 C         136.8941  140.7545  156.5771 C.3     1  UNL1        0.0938
     33 C         137.7343  141.0696  157.7791 C.3     1  UNL1        0.1081
     34 C         136.5264  139.4268  154.3743 C.3     1  UNL1        0.0577
     35 C         136.6648  138.0993  153.6897 C.3     1  UNL1        0.0173
     36 C         135.5479  140.4391  153.8570 C.3     1  UNL1        0.0173
@<TRIPOS>BOND
     1    20    21    1
     2    21     8    1
     3     8     9   ar
     4     9    10   ar
     5    10     1    1
     6     1     2   ar
     7     2     3   ar
     8     3     4   ar
     9     4     5   ar
    10     5    22    1
    11    22    23   ar
    12    23    24   ar
    13    24    25   ar
    14    25    28    1
    15    28    29    1
    16    29    30    1
    17    30    31    1
    18    31    34    1
    19    34    35    1
    20    34    36    1
    21    31    32    1
    22    32    33    1
    23    25    26   ar
    24    26    27   ar
    25     5     6   ar
    26     6     7    1
    27    10    11   ar
    28    11    12   ar
    29    12    13    1
    30    12    14   ar
    31    14    15    1
    32    15    16   am
    33    15    17    2
    34    14     8   ar
    35     6     1   ar
    36    27    22   ar
    37    33    28    1
    38    16    18    1
    39    16    19    1
@<TRIPOS>MOLECULE
*****
 36 39 0 0 0
SMALL
GASTEIGER

@<TRIPOS>ATOM
      1 C         143.3871  141.5149  165.0721 C.ar    1  UNL1        0.0154
      2 C         144.6733  142.2865  165.0592 C.ar    1  UNL1        0.0985
      3 N         145.5704  142.2290  163.8584 N.ar    1  UNL1       -0.2423
      4 C         145.1812  141.3998  162.6705 C.ar    1  UNL1        0.0985
      5 C         143.8950  140.6282  162.6834 C.ar    1  UNL1        0.0152
      6 C         142.9979  140.6857  163.8843 C.ar    1  UNL1       -0.0188
      7 C         141.7117  139.9141  163.8972 C.3     1  UNL1        0.0311
      8 C         141.6809  140.5658  168.5273 C.ar    1  UNL1        0.1452
      9 C         142.5779  140.5083  167.3265 C.ar    1  UNL1        0.0372
     10 C         142.4900  141.5724  166.2730 C.ar    1  UNL1        0.0064
     11 C         141.5051  142.6940  166.4203 C.ar    1  UNL1        0.0300
     12 C         140.6080  142.7515  167.6211 C.ar    1  UNL1        0.1474
     13 F         139.6230  143.8732  167.7685 F       1  UNL1       -0.2039
     14 C         140.6960  141.6874  168.6746 C.ar    1  UNL1        0.1144
     15 C         139.7989  141.7449  169.8755 C.2     1  UNL1        0.2479
     16 N         139.0017  140.5386  170.2746 N.am    1  UNL1       -0.3252
     17 O         139.6990  143.0088  170.6772 O.2     1  UNL1       -0.2702
     18 H         139.0672  139.7091  169.7484 H       1  UNL1        0.1453
     19 H         138.4129  140.5764  171.0627 H       1  UNL1        0.1453
     20 C         142.8570  139.5550  170.6118 C.3     1  UNL1        0.2525
     21 O         141.7688  139.5016  169.5808 O.3     1  UNL1       -0.4712
     22 C         143.5058  139.7990  161.4956 C.ar    1  UNL1        0.0013
     23 C         142.9297  140.4579  160.2774 C.ar    1  UNL1        0.0013
     24 C         142.5404  139.6288  159.0895 C.ar    1  UNL1        0.0145
     25 C         142.7274  138.1408  159.1198 C.ar    1  UNL1        0.0479
     26 C         143.3036  137.4819  160.3380 C.ar    1  UNL1        0.0145
     27 C         143.6928  138.3110  161.5259 C.ar    1  UNL1        0.0013
     28 N         142.3382  137.3116  157.9319 N.pl3   1  UNL1       -0.3046
     29 C         143.1113  136.0704  157.5980 C.3     1  UNL1        0.1081
     30 C         142.7222  135.2412  156.4101 C.3     1  UNL1        0.0938
     31 N         141.5599  135.6533  155.5562 N.3     1  UNL1       -0.2711
     32 C         140.7868  136.8947  155.8901 C.3     1  UNL1        0.0938
     33 C         141.1759  137.7238  157.0780 C.3     1  UNL1        0.1081
     34 C         141.1707  134.8242  154.3683 C.3     1  UNL1        0.0577
     35 C         141.3336  133.3335  154.4083 C.3     1  UNL1        0.0173
     36 C         140.6186  135.4856  153.1405 C.3     1  UNL1        0.0173
@<TRIPOS>BOND
     1    20    21    1
     2    21     8    1
     3     8     9   ar
     4     9    10   ar
     5    10     1    1
     6     1     2   ar
     7     2     3   ar
     8     3     4   ar
     9     4     5   ar
    10     5    22    1
    11    22    23   ar
    12    23    24   ar
    13    24    25   ar
    14    25    28    1
    15    28    29    1
    16    29    30    1
    17    30    31    1
    18    31    34    1
    19    34    35    1
    20    34    36    1
    21    31    32    1
    22    32    33    1
    23    25    26   ar
    24    26    27   ar
    25     5     6   ar
    26     6     7    1
    27    10    11   ar
    28    11    12   ar
    29    12    13    1
    30    12    14   ar
    31    14    15    1
    32    15    16   am
    33    15    17    2
    34    14     8   ar
    35     6     1   ar
    36    27    22   ar
    37    33    28    1
    38    16    18    1
    39    16    19    1
